<?xml version="1.0" encoding="UTF-8"?>

<!-- generated on Tue Apr  5 13:44:44 2016 by SUMO Version dev-SVN-r20343
<?xml version="1.0" encoding="UTF-8"?>

<configuration xmlns:xsi="http://www.w3.org/2001/XMLSchema-instance" xsi:noNamespaceSchemaLocation="http://sumo.dlr.de/xsd/sumoConfiguration.xsd">

    <input>
        <net-file value="net.net.xml"/>
        <route-files value="input_routes.rou.xml"/>
        <additional-files value="input_additional.add.xml"/>
    </input>

    <time>
        <begin value="0"/>
        <end value="220"/>
    </time>

    <report>
        <xml-validation value="never"/>
        <duration-log.disable value="true"/>
        <no-step-log value="true"/>
    </report>

</configuration>
-->

<vehicle-type-probes>
    <timestep time="0.00" id="test1" vType="DEFAULT_VEHTYPE"/>
    <timestep time="10.00" id="test1" vType="DEFAULT_VEHTYPE"/>
    <timestep time="20.00" id="test1" vType="DEFAULT_VEHTYPE"/>
    <timestep time="30.00" id="test1" vType="DEFAULT_VEHTYPE"/>
    <timestep time="40.00" id="test1" vType="DEFAULT_VEHTYPE"/>
    <timestep time="50.00" id="test1" vType="DEFAULT_VEHTYPE"/>
    <timestep time="60.00" id="test1" vType="DEFAULT_VEHTYPE"/>
    <timestep time="70.00" id="test1" vType="DEFAULT_VEHTYPE"/>
    <timestep time="80.00" id="test1" vType="DEFAULT_VEHTYPE"/>
    <timestep time="90.00" id="test1" vType="DEFAULT_VEHTYPE"/>
    <timestep time="100.00" id="test1" vType="DEFAULT_VEHTYPE">
        <vehicle id="always_left.0" lane="1fi_0" pos="5.10" x="5.10" y="498.35" speed="0.00"/>
        <vehicle id="always_right.0" lane="3fi_0" pos="5.10" x="501.65" y="5.10" speed="0.00"/>
        <vehicle id="horizontal.0" lane="2fi_0" pos="5.10" x="994.90" y="501.65" speed="0.00"/>
    </timestep>
    <timestep time="110.00" id="test1" vType="DEFAULT_VEHTYPE">
        <vehicle id="always_left.0" lane="1fi_0" pos="77.04" x="77.04" y="498.35" speed="10.90"/>
        <vehicle id="always_left.1" lane="1fi_0" pos="5.10" x="5.10" y="498.35" speed="0.00"/>
        <vehicle id="always_right.0" lane="3fi_0" pos="86.52" x="501.65" y="86.52" speed="11.07"/>
        <vehicle id="always_right.1" lane="3fi_0" pos="5.10" x="501.65" y="5.10" speed="0.00"/>
        <vehicle id="horizontal.0" lane="2fi_0" pos="82.04" x="917.96" y="501.65" speed="9.87"/>
        <vehicle id="horizontal.1" lane="2fi_0" pos="5.10" x="994.90" y="501.65" speed="0.00"/>
        <vehicle id="vertical.0" lane="3fi_0" pos="52.65" x="501.65" y="52.65" speed="10.22"/>
    </timestep>
    <timestep time="120.00" id="test1" vType="DEFAULT_VEHTYPE">
        <vehicle id="always_left.0" lane="1fi_0" pos="182.65" x="182.65" y="498.35" speed="10.58"/>
        <vehicle id="always_left.1" lane="1fi_0" pos="82.18" x="82.18" y="498.35" speed="10.66"/>
        <vehicle id="always_left.2" lane="1fi_0" pos="5.10" x="5.10" y="498.35" speed="0.00"/>
        <vehicle id="always_right.0" lane="3fi_0" pos="192.05" x="501.65" y="192.05" speed="10.50"/>
        <vehicle id="always_right.1" lane="3fi_0" pos="82.10" x="501.65" y="82.10" speed="10.09"/>
        <vehicle id="always_right.2" lane="3fi_0" pos="5.10" x="501.65" y="5.10" speed="0.00"/>
        <vehicle id="horizontal.0" lane="2fi_0" pos="188.09" x="811.91" y="501.65" speed="10.20"/>
        <vehicle id="horizontal.1" lane="2fi_0" pos="78.36" x="921.64" y="501.65" speed="10.98"/>
        <vehicle id="horizontal.2" lane="2fi_0" pos="5.10" x="994.90" y="501.65" speed="0.00"/>
        <vehicle id="vertical.0" lane="3fi_0" pos="157.13" x="501.65" y="157.13" speed="10.25"/>
        <vehicle id="vertical.1" lane="3fi_0" pos="50.58" x="501.65" y="50.58" speed="10.74"/>
    </timestep>
    <timestep time="130.00" id="test1" vType="DEFAULT_VEHTYPE">
        <vehicle id="always_left.0" lane="1si_2" pos="39.79" x="291.29" y="498.35" speed="13.75"/>
        <vehicle id="always_left.1" lane="1fi_0" pos="189.67" x="189.67" y="498.35" speed="10.36"/>
        <vehicle id="always_left.2" lane="1fi_0" pos="78.22" x="78.22" y="498.35" speed="10.81"/>
        <vehicle id="always_left.3" lane="1fi_0" pos="5.10" x="5.10" y="498.35" speed="0.00"/>
        <vehicle id="always_right.0" lane="3si_0" pos="52.52" x="508.25" y="304.02" speed="13.87"/>
        <vehicle id="always_right.1" lane="3fi_0" pos="184.35" x="501.65" y="184.35" speed="9.93"/>
        <vehicle id="always_right.2" lane="3fi_0" pos="77.73" x="501.65" y="77.73" speed="9.92"/>
        <vehicle id="always_right.3" lane="3fi_0" pos="5.10" x="501.65" y="5.10" speed="0.00"/>
        <vehicle id="horizontal.0" lane="2si_1" pos="47.61" x="700.89" y="504.95" speed="13.20"/>
        <vehicle id="horizontal.1" lane="2fi_0" pos="182.47" x="817.53" y="501.65" speed="10.40"/>
        <vehicle id="horizontal.2" lane="2fi_0" pos="80.53" x="919.47" y="501.65" speed="9.89"/>
        <vehicle id="horizontal.3" lane="2fi_0" pos="5.10" x="994.90" y="501.65" speed="0.00"/>
        <vehicle id="vertical.0" lane="3si_1" pos="10.88" x="504.95" y="262.38" speed="11.99"/>
        <vehicle id="vertical.1" lane="3fi_0" pos="155.26" x="501.65" y="155.26" speed="10.82"/>
        <vehicle id="vertical.2" lane="3fi_0" pos="39.40" x="501.65" y="39.40" speed="10.81"/>
    </timestep>
    <timestep time="140.00" id="test1" vType="DEFAULT_VEHTYPE">
        <vehicle id="always_left.0" lane="1si_2" pos="170.52" x="422.02" y="498.35" speed="13.84"/>
        <vehicle id="always_left.1" lane="1si_2" pos="49.07" x="300.57" y="498.35" speed="13.71"/>
        <vehicle id="always_left.2" lane="1fi_0" pos="182.79" x="182.79" y="498.35" speed="10.23"/>
        <vehicle id="always_left.3" lane="1fi_0" pos="76.10" x="76.10" y="498.35" speed="10.13"/>
        <vehicle id="always_left.4" lane="1fi_0" pos="5.10" x="5.10" y="498.35" speed="0.00"/>
        <vehicle id="always_right.0" lane="3si_0" pos="185.16" x="508.25" y="436.66" speed="12.65"/>
        <vehicle id="always_right.1" lane="3si_0" pos="42.79" x="508.25" y="294.29" speed="13.05"/>
        <vehicle id="always_right.2" lane="3fi_0" pos="182.57" x="501.65" y="182.57" speed="10.09"/>
        <vehicle id="always_right.3" lane="3fi_0" pos="86.26" x="501.65" y="86.26" speed="10.56"/>
        <vehicle id="always_right.4" lane="3fi_0" pos="5.10" x="501.65" y="5.10" speed="0.00"/>
        <vehicle id="horizontal.0" lane="2si_1" pos="180.96" x="567.54" y="504.95" speed="13.82"/>
        <vehicle id="horizontal.1" lane="2si_1" pos="39.37" x="709.13" y="504.95" speed="12.63"/>
        <vehicle id="horizontal.2" lane="2fi_0" pos="183.29" x="816.71" y="501.65" speed="10.42"/>
        <vehicle id="horizontal.3" lane="2fi_0" pos="82.59" x="917.41" y="501.65" speed="10.84"/>
        <vehicle id="horizontal.4" lane="2fi_0" pos="5.10" x="994.90" y="501.65" speed="0.00"/>
        <vehicle id="vertical.0" lane="3si_1" pos="143.71" x="504.95" y="395.21" speed="12.83"/>
        <vehicle id="vertical.1" lane="3si_1" pos="8.02" x="504.95" y="259.52" speed="11.51"/>
        <vehicle id="vertical.2" lane="3fi_0" pos="144.38" x="501.65" y="144.38" speed="10.05"/>
        <vehicle id="vertical.3" lane="3fi_0" pos="41.61" x="501.65" y="41.61" speed="10.55"/>
    </timestep>
    <timestep time="150.00" id="test1" vType="DEFAULT_VEHTYPE">
        <vehicle id="always_left.0" lane="4o_0" pos="18.95" x="501.65" y="530.30" speed="9.93"/>
        <vehicle id="always_left.1" lane="1si_2" pos="181.09" x="432.59" y="498.35" speed="13.16"/>
        <vehicle id="always_left.2" lane="1si_2" pos="39.65" x="291.15" y="498.35" speed="13.40"/>
        <vehicle id="always_left.3" lane="1fi_0" pos="182.56" x="182.56" y="498.35" speed="9.98"/>
        <vehicle id="always_left.4" lane="1fi_0" pos="75.58" x="75.58" y="498.35" speed="10.11"/>
        <vehicle id="always_left.5" lane="1fi_0" pos="5.10" x="5.10" y="498.35" speed="0.00"/>
        <vehicle id="always_right.0" lane="3si_0" pos="236.15" x="508.25" y="487.65" speed="0.00"/>
        <vehicle id="always_right.1" lane="3si_0" pos="175.85" x="508.25" y="427.35" speed="12.92"/>
        <vehicle id="always_right.2" lane="3si_0" pos="40.92" x="508.25" y="292.42" speed="13.23"/>
        <vehicle id="always_right.3" lane="3fi_0" pos="188.42" x="501.65" y="188.42" speed="10.08"/>
        <vehicle id="always_right.4" lane="3fi_0" pos="85.69" x="501.65" y="85.69" speed="10.79"/>
        <vehicle id="always_right.5" lane="3fi_0" pos="5.10" x="501.65" y="5.10" speed="0.00"/>
        <vehicle id="horizontal.0" lane="1o_0" pos="38.88" x="449.77" y="501.65" speed="9.91"/>
        <vehicle id="horizontal.1" lane="2si_1" pos="170.38" x="578.12" y="504.95" speed="12.61"/>
        <vehicle id="horizontal.2" lane="2si_1" pos="39.69" x="708.81" y="504.95" speed="13.21"/>
        <vehicle id="horizontal.3" lane="2fi_0" pos="187.59" x="812.41" y="501.65" speed="10.72"/>
        <vehicle id="horizontal.4" lane="2fi_0" pos="80.57" x="919.43" y="501.65" speed="10.73"/>
        <vehicle id="horizontal.5" lane="2fi_0" pos="5.10" x="994.90" y="501.65" speed="0.00"/>
        <vehicle id="vertical.0" lane="3si_1" pos="236.05" x="504.95" y="487.55" speed="0.26"/>
        <vehicle id="vertical.1" lane="3si_1" pos="140.51" x="504.95" y="392.01" speed="12.64"/>
        <vehicle id="vertical.2" lane="3fi_0" pos="248.20" x="501.65" y="248.20" speed="10.56"/>
        <vehicle id="vertical.3" lane="3fi_0" pos="146.63" x="501.65" y="146.63" speed="10.75"/>
        <vehicle id="vertical.4" lane="3fi_0" pos="49.52" x="501.65" y="49.52" speed="10.96"/>
    </timestep>
    <timestep time="160.00" id="test1" vType="DEFAULT_VEHTYPE">
        <vehicle id="always_left.0" lane="4o_0" pos="123.83" x="501.65" y="635.18" speed="10.89"/>
        <vehicle id="always_left.1" lane=":0_22_0" pos="9.94" x="501.21" y="508.27" speed="6.50"/>
        <vehicle id="always_left.2" lane="1si_2" pos="171.22" x="422.72" y="498.35" speed="13.52"/>
        <vehicle id="always_left.3" lane="1si_2" pos="38.56" x="290.06" y="498.35" speed="13.78"/>
        <vehicle id="always_left.4" lane="1fi_0" pos="180.15" x="180.15" y="498.35" speed="9.86"/>
        <vehicle id="always_left.5" lane="1fi_0" pos="75.29" x="75.29" y="498.35" speed="10.10"/>
        <vehicle id="always_left.6" lane="1fi_0" pos="5.10" x="5.10" y="498.35" speed="0.00"/>
        <vehicle id="always_right.0" lane="3si_0" pos="236.15" x="508.25" y="487.65" speed="0.00"/>
        <vehicle id="always_right.1" lane="3si_0" pos="228.64" x="508.25" y="480.14" speed="0.00"/>
        <vehicle id="always_right.2" lane="3si_0" pos="172.52" x="508.25" y="424.02" speed="12.92"/>
        <vehicle id="always_right.3" lane="3si_0" pos="46.61" x="508.25" y="298.11" speed="12.87"/>
        <vehicle id="always_right.4" lane="3fi_0" pos="192.66" x="501.65" y="192.66" speed="10.68"/>
        <vehicle id="always_right.5" lane="3fi_0" pos="78.80" x="501.65" y="78.80" speed="10.50"/>
        <vehicle id="always_right.6" lane="3fi_0" pos="5.10" x="501.65" y="5.10" speed="0.00"/>
        <vehicle id="horizontal.0" lane="1o_0" pos="143.80" x="344.85" y="501.65" speed="10.00"/>
        <vehicle id="horizontal.1" lane="1o_0" pos="29.50" x="459.15" y="501.65" speed="10.52"/>
        <vehicle id="horizontal.2" lane="2si_1" pos="171.75" x="576.75" y="504.95" speed="13.75"/>
        <vehicle id="horizontal.3" lane="2si_1" pos="48.13" x="700.37" y="504.95" speed="12.89"/>
        <vehicle id="horizontal.4" lane="2fi_0" pos="183.97" x="816.03" y="501.65" speed="11.10"/>
        <vehicle id="horizontal.5" lane="2fi_0" pos="83.72" x="916.28" y="501.65" speed="10.87"/>
        <vehicle id="horizontal.6" lane="2fi_0" pos="5.10" x="994.90" y="501.65" speed="0.00"/>
        <vehicle id="vertical.0" lane="3si_1" pos="236.15" x="504.95" y="487.65" speed="0.00"/>
        <vehicle id="vertical.1" lane="3si_1" pos="228.62" x="504.95" y="480.12" speed="0.00"/>
        <vehicle id="vertical.2" lane="3si_1" pos="125.94" x="504.95" y="377.44" speed="13.82"/>
        <vehicle id="vertical.3" lane=":m3_0_1" pos="0.89" x="502.25" y="249.04" speed="10.53"/>
        <vehicle id="vertical.4" lane="3fi_0" pos="155.22" x="501.65" y="155.22" speed="11.10"/>
        <vehicle id="vertical.5" lane="3fi_0" pos="48.21" x="501.65" y="48.21" speed="10.22"/>
    </timestep>
    <timestep time="170.00" id="test1" vType="DEFAULT_VEHTYPE">
        <vehicle id="always_left.0" lane="4o_0" pos="227.11" x="501.65" y="738.46" speed="10.48"/>
        <vehicle id="always_left.1" lane="4o_0" pos="97.66" x="501.65" y="609.01" speed="11.06"/>
        <vehicle id="always_left.2" lane="4o_0" pos="0.71" x="501.65" y="512.06" speed="7.80"/>
        <vehicle id="always_left.3" lane="1si_2" pos="169.05" x="420.55" y="498.35" speed="13.76"/>
        <vehicle id="always_left.4" lane="1si_2" pos="39.36" x="290.86" y="498.35" speed="12.78"/>
        <vehicle id="always_left.5" lane="1fi_0" pos="180.62" x="180.62" y="498.35" speed="10.40"/>
        <vehicle id="always_left.6" lane="1fi_0" pos="83.52" x="83.52" y="498.35" speed="10.14"/>
        <vehicle id="always_left.7" lane="1fi_0" pos="5.10" x="5.10" y="498.35" speed="0.00"/>
        <vehicle id="always_right.0" lane="3si_0" pos="236.15" x="508.25" y="487.65" speed="0.00"/>
        <vehicle id="always_right.1" lane="3si_0" pos="228.65" x="508.25" y="480.15" speed="0.00"/>
        <vehicle id="always_right.2" lane="3si_0" pos="221.15" x="508.25" y="472.65" speed="0.00"/>
        <vehicle id="always_right.3" lane="3si_0" pos="177.42" x="508.25" y="428.92" speed="13.43"/>
        <vehicle id="always_right.4" lane="3si_0" pos="54.64" x="508.25" y="306.14" speed="12.70"/>
        <vehicle id="always_right.5" lane="3fi_0" pos="183.95" x="501.65" y="183.95" speed="10.06"/>
        <vehicle id="always_right.6" lane="3fi_0" pos="80.40" x="501.65" y="80.40" speed="9.87"/>
        <vehicle id="always_right.7" lane="3fi_0" pos="5.10" x="501.65" y="5.10" speed="0.00"/>
        <vehicle id="horizontal.0" lane="1o_0" pos="247.66" x="240.99" y="501.65" speed="9.97"/>
        <vehicle id="horizontal.1" lane="1o_0" pos="132.48" x="356.17" y="501.65" speed="10.37"/>
        <vehicle id="horizontal.2" lane="1o_0" pos="31.67" x="456.98" y="501.65" speed="11.07"/>
        <vehicle id="horizontal.3" lane="2si_1" pos="181.78" x="566.72" y="504.95" speed="13.12"/>
        <vehicle id="horizontal.4" lane="2si_1" pos="43.44" x="705.06" y="504.95" speed="13.23"/>
        <vehicle id="horizontal.5" lane="2fi_0" pos="187.45" x="812.55" y="501.65" speed="10.36"/>
        <vehicle id="horizontal.6" lane="2fi_0" pos="83.96" x="916.04" y="501.65" speed="10.98"/>
        <vehicle id="horizontal.7" lane="2fi_0" pos="5.10" x="994.90" y="501.65" speed="0.00"/>
        <vehicle id="vertical.0" lane="3si_1" pos="236.15" x="504.95" y="487.65" speed="0.00"/>
        <vehicle id="vertical.1" lane="3si_1" pos="228.65" x="504.95" y="480.15" speed="0.00"/>
        <vehicle id="vertical.2" lane="3si_1" pos="221.06" x="504.95" y="472.56" speed="0.19"/>
        <vehicle id="vertical.3" lane="3si_1" pos="127.09" x="504.95" y="378.59" speed="12.70"/>
        <vehicle id="vertical.4" lane="3si_1" pos="6.28" x="504.95" y="257.78" speed="11.98"/>
        <vehicle id="vertical.5" lane="3fi_0" pos="154.26" x="501.65" y="154.26" speed="10.19"/>
        <vehicle id="vertical.6" lane="3fi_0" pos="50.00" x="501.65" y="50.00" speed="11.11"/>
    </timestep>
    <timestep time="180.00" id="test1" vType="DEFAULT_VEHTYPE">
        <vehicle id="always_left.0" lane="4o_0" pos="330.46" x="501.65" y="841.81" speed="10.85"/>
        <vehicle id="always_left.1" lane="4o_0" pos="201.70" x="501.65" y="713.05" speed="9.98"/>
        <vehicle id="always_left.2" lane="4o_0" pos="105.27" x="501.65" y="616.62" speed="10.42"/>
        <vehicle id="always_left.3" lane="4o_0" pos="28.57" x="501.65" y="539.92" speed="10.77"/>
        <vehicle id="always_left.4" lane="1si_2" pos="170.26" x="421.76" y="498.35" speed="12.96"/>
        <vehicle id="always_left.5" lane="1si_2" pos="36.39" x="287.89" y="498.35" speed="13.50"/>
        <vehicle id="always_left.6" lane="1fi_0" pos="189.17" x="189.17" y="498.35" speed="11.00"/>
        <vehicle id="always_left.7" lane="1fi_0" pos="83.09" x="83.09" y="498.35" speed="11.04"/>
        <vehicle id="always_left.8" lane="1fi_0" pos="5.10" x="5.10" y="498.35" speed="0.00"/>
        <vehicle id="always_right.0" lane=":0_8_0" pos="0.27" x="508.26" y="488.92" speed="2.53"/>
        <vehicle id="always_right.1" lane="3si_0" pos="228.65" x="508.25" y="480.15" speed="0.00"/>
        <vehicle id="always_right.2" lane="3si_0" pos="221.15" x="508.25" y="472.65" speed="0.00"/>
        <vehicle id="always_right.3" lane="3si_0" pos="213.65" x="508.25" y="465.15" speed="0.00"/>
        <vehicle id="always_right.4" lane="3si_0" pos="186.58" x="508.25" y="438.08" speed="12.21"/>
        <vehicle id="always_right.5" lane="3si_0" pos="41.03" x="508.25" y="292.53" speed="12.81"/>
        <vehicle id="always_right.6" lane="3fi_0" pos="183.76" x="501.65" y="183.76" speed="10.71"/>
        <vehicle id="always_right.7" lane="3fi_0" pos="78.48" x="501.65" y="78.48" speed="11.07"/>
        <vehicle id="always_right.8" lane="3fi_0" pos="5.10" x="501.65" y="5.10" speed="0.00"/>
        <vehicle id="horizontal.0" lane="1o_0" pos="352.76" x="135.89" y="501.65" speed="10.28"/>
        <vehicle id="horizontal.1" lane="1o_0" pos="236.50" x="252.15" y="501.65" speed="10.58"/>
        <vehicle id="horizontal.2" lane="1o_0" pos="135.21" x="353.44" y="501.65" speed="10.95"/>
        <vehicle id="horizontal.3" lane="2si_1" pos="236.14" x="512.36" y="504.95" speed="0.00"/>
        <vehicle id="horizontal.4" lane="2si_1" pos="176.38" x="572.12" y="504.95" speed="13.57"/>
        <vehicle id="horizontal.5" lane="2si_1" pos="46.20" x="702.30" y="504.95" speed="13.72"/>
        <vehicle id="horizontal.6" lane="2fi_0" pos="189.06" x="810.94" y="501.65" speed="10.45"/>
        <vehicle id="horizontal.7" lane="2fi_0" pos="76.94" x="923.06" y="501.65" speed="10.34"/>
        <vehicle id="horizontal.8" lane="2fi_0" pos="5.10" x="994.90" y="501.65" speed="0.00"/>
        <vehicle id="vertical.0" lane="3si_1" pos="237.02" x="504.95" y="488.52" speed="1.73"/>
        <vehicle id="vertical.1" lane="3si_1" pos="228.65" x="504.95" y="480.15" speed="0.00"/>
        <vehicle id="vertical.2" lane="3si_1" pos="221.15" x="504.95" y="472.65" speed="0.00"/>
        <vehicle id="vertical.3" lane="3si_1" pos="213.60" x="504.95" y="465.10" speed="0.28"/>
        <vehicle id="vertical.4" lane="3si_1" pos="139.31" x="504.95" y="390.81" speed="13.41"/>
        <vehicle id="vertical.5" lane="3si_1" pos="4.32" x="504.95" y="255.82" speed="10.17"/>
        <vehicle id="vertical.6" lane="3fi_0" pos="155.61" x="501.65" y="155.61" speed="10.86"/>
        <vehicle id="vertical.7" lane="3fi_0" pos="50.84" x="501.65" y="50.84" speed="10.76"/>
    </timestep>
    <timestep time="190.00" id="test1" vType="DEFAULT_VEHTYPE">
        <vehicle id="always_left.0" lane="4o_0" pos="435.89" x="501.65" y="947.24" speed="10.48"/>
        <vehicle id="always_left.1" lane="4o_0" pos="305.15" x="501.65" y="816.50" speed="10.91"/>
        <vehicle id="always_left.2" lane="4o_0" pos="211.32" x="501.65" y="722.67" speed="10.26"/>
        <vehicle id="always_left.3" lane="4o_0" pos="134.29" x="501.65" y="645.64" speed="10.72"/>
        <vehicle id="always_left.4" lane="1si_2" pos="236.13" x="487.63" y="498.35" speed="0.00"/>
        <vehicle id="always_left.5" lane="1si_2" pos="167.95" x="419.45" y="498.35" speed="13.42"/>
        <vehicle id="always_left.6" lane="1si_2" pos="48.92" x="300.42" y="498.35" speed="13.74"/>
        <vehicle id="always_left.7" lane="1fi_0" pos="185.53" x="185.53" y="498.35" speed="10.90"/>
        <vehicle id="always_left.8" lane="1fi_0" pos="84.87" x="84.87" y="498.35" speed="10.25"/>
        <vehicle id="always_left.9" lane="1fi_0" pos="5.10" x="5.10" y="498.35" speed="0.00"/>
        <vehicle id="always_right.0" lane="2o_0" pos="79.94" x="591.29" y="498.35" speed="10.24"/>
        <vehicle id="always_right.1" lane="2o_0" pos="51.85" x="563.20" y="498.35" speed="11.05"/>
        <vehicle id="always_right.2" lane="2o_0" pos="31.27" x="542.62" y="498.35" speed="10.00"/>
        <vehicle id="always_right.3" lane="2o_0" pos="10.85" x="522.20" y="498.35" speed="10.73"/>
        <vehicle id="always_right.4" lane=":0_8_0" pos="3.61" x="508.41" y="492.25" speed="9.21"/>
        <vehicle id="always_right.5" lane="3si_0" pos="173.32" x="508.25" y="424.82" speed="13.34"/>
        <vehicle id="always_right.6" lane="3si_0" pos="40.31" x="508.25" y="291.81" speed="12.83"/>
        <vehicle id="always_right.7" lane="3fi_0" pos="184.47" x="501.65" y="184.47" speed="10.18"/>
        <vehicle id="always_right.8" lane="3fi_0" pos="82.70" x="501.65" y="82.70" speed="10.98"/>
        <vehicle id="always_right.9" lane="3fi_0" pos="5.10" x="501.65" y="5.10" speed="0.00"/>
        <vehicle id="horizontal.0" lane="1o_0" pos="456.52" x="32.13" y="501.65" speed="10.30"/>
        <vehicle id="horizontal.1" lane="1o_0" pos="339.79" x="148.86" y="501.65" speed="10.61"/>
        <vehicle id="horizontal.2" lane="1o_0" pos="238.49" x="250.16" y="501.65" speed="9.83"/>
        <vehicle id="horizontal.3" lane="2si_1" pos="236.15" x="512.35" y="504.95" speed="0.00"/>
        <vehicle id="horizontal.4" lane="2si_1" pos="228.65" x="519.85" y="504.95" speed="0.03"/>
        <vehicle id="horizontal.5" lane="2si_1" pos="179.97" x="568.53" y="504.95" speed="13.70"/>
        <vehicle id="horizontal.6" lane="2si_1" pos="48.87" x="699.63" y="504.95" speed="12.62"/>
        <vehicle id="horizontal.7" lane="2fi_0" pos="182.42" x="817.58" y="501.65" speed="11.06"/>
        <vehicle id="horizontal.8" lane="2fi_0" pos="78.97" x="921.03" y="501.65" speed="11.03"/>
        <vehicle id="horizontal.9" lane="2fi_0" pos="5.10" x="994.90" y="501.65" speed="0.00"/>
        <vehicle id="vertical.0" lane="4o_0" pos="62.06" x="501.65" y="573.41" speed="10.24"/>
        <vehicle id="vertical.1" lane="4o_0" pos="39.14" x="501.65" y="550.49" speed="10.97"/>
        <vehicle id="vertical.2" lane="4o_0" pos="18.66" x="501.65" y="530.01" speed="10.72"/>
        <vehicle id="vertical.3" lane=":0_9_0" pos="21.41" x="501.85" y="509.80" speed="10.84"/>
        <vehicle id="vertical.4" lane=":0_9_0" pos="1.72" x="504.83" y="490.36" speed="10.79"/>
        <vehicle id="vertical.5" lane="3si_1" pos="134.35" x="504.95" y="385.85" speed="12.67"/>
        <vehicle id="vertical.6" lane="3si_1" pos="8.11" x="504.95" y="259.61" speed="11.44"/>
        <vehicle id="vertical.7" lane="3fi_0" pos="157.42" x="501.65" y="157.42" speed="11.05"/>
        <vehicle id="vertical.8" lane="3fi_0" pos="47.69" x="501.65" y="47.69" speed="10.57"/>
    </timestep>
    <timestep time="200.00" id="test1" vType="DEFAULT_VEHTYPE">
        <vehicle id="always_left.0" lane="4fi_0" pos="49.25" x="498.35" y="950.75" speed="10.74"/>
        <vehicle id="always_left.1" lane="4o_0" pos="409.67" x="501.65" y="921.02" speed="10.66"/>
        <vehicle id="always_left.10" lane="1fi_0" pos="5.10" x="5.10" y="498.35" speed="0.00"/>
        <vehicle id="always_left.2" lane="4o_0" pos="315.75" x="501.65" y="827.10" speed="10.59"/>
        <vehicle id="always_left.3" lane="4o_0" pos="241.41" x="501.65" y="752.76" speed="10.62"/>
        <vehicle id="always_left.4" lane="1si_2" pos="236.15" x="487.65" y="498.35" speed="0.00"/>
        <vehicle id="always_left.5" lane="1si_2" pos="228.65" x="480.15" y="498.35" speed="0.04"/>
        <vehicle id="always_left.6" lane="1si_2" pos="179.10" x="430.60" y="498.35" speed="12.99"/>
        <vehicle id="always_left.7" lane="1si_2" pos="48.16" x="299.66" y="498.35" speed="13.84"/>
        <vehicle id="always_left.8" lane="1fi_0" pos="188.53" x="188.53" y="498.35" speed="10.71"/>
        <vehicle id="always_left.9" lane="1fi_0" pos="78.71" x="78.71" y="498.35" speed="11.09"/>
        <vehicle id="always_right.0" lane="2o_0" pos="186.98" x="698.33" y="498.35" speed="10.36"/>
        <vehicle id="always_right.1" lane="2o_0" pos="155.98" x="667.33" y="498.35" speed="10.32"/>
        <vehicle id="always_right.10" lane="3fi_0" pos="5.10" x="501.65" y="5.10" speed="0.00"/>
        <vehicle id="always_right.2" lane="2o_0" pos="134.63" x="645.98" y="498.35" speed="10.90"/>
        <vehicle id="always_right.3" lane="2o_0" pos="113.30" x="624.65" y="498.35" speed="10.01"/>
        <vehicle id="always_right.4" lane="2o_0" pos="93.36" x="604.71" y="498.35" speed="10.84"/>
        <vehicle id="always_right.5" lane="2o_0" pos="43.23" x="554.58" y="498.35" speed="10.23"/>
        <vehicle id="always_right.6" lane="3si_0" pos="172.68" x="508.25" y="424.18" speed="12.92"/>
        <vehicle id="always_right.7" lane="3si_0" pos="38.15" x="508.25" y="289.65" speed="13.32"/>
        <vehicle id="always_right.8" lane="3fi_0" pos="188.94" x="501.65" y="188.94" speed="10.64"/>
        <vehicle id="always_right.9" lane="3fi_0" pos="79.77" x="501.65" y="79.77" speed="10.39"/>
        <vehicle id="horizontal.0" lane="1fi_0" pos="58.74" x="58.74" y="498.35" speed="10.73"/>
        <vehicle id="horizontal.1" lane="1o_0" pos="443.31" x="45.34" y="501.65" speed="10.32"/>
        <vehicle id="horizontal.10" lane="2fi_0" pos="5.10" x="994.90" y="501.65" speed="0.00"/>
        <vehicle id="horizontal.2" lane="1o_0" pos="343.48" x="145.17" y="501.65" speed="10.12"/>
        <vehicle id="horizontal.3" lane="2si_1" pos="236.15" x="512.35" y="504.95" speed="0.00"/>
        <vehicle id="horizontal.4" lane="2si_1" pos="228.65" x="519.85" y="504.95" speed="0.00"/>
        <vehicle id="horizontal.5" lane="2si_1" pos="221.15" x="527.35" y="504.95" speed="0.00"/>
        <vehicle id="horizontal.6" lane="2si_1" pos="181.66" x="566.84" y="504.95" speed="13.20"/>
        <vehicle id="horizontal.7" lane="2si_1" pos="40.41" x="708.09" y="504.95" speed="13.78"/>
        <vehicle id="horizontal.8" lane="2fi_0" pos="184.13" x="815.87" y="501.65" speed="9.89"/>
        <vehicle id="horizontal.9" lane="2fi_0" pos="84.07" x="915.93" y="501.65" speed="10.26"/>
        <vehicle id="vertical.0" lane="4o_0" pos="164.76" x="501.65" y="676.11" speed="10.81"/>
        <vehicle id="vertical.1" lane="4o_0" pos="143.51" x="501.65" y="654.86" speed="11.04"/>
        <vehicle id="vertical.2" lane="4o_0" pos="122.76" x="501.65" y="634.11" speed="10.20"/>
        <vehicle id="vertical.3" lane="4o_0" pos="102.60" x="501.65" y="613.95" speed="10.48"/>
        <vehicle id="vertical.4" lane="4o_0" pos="80.82" x="501.65" y="592.17" speed="10.09"/>
        <vehicle id="vertical.5" lane="4o_0" pos="2.60" x="501.65" y="513.95" speed="10.22"/>
        <vehicle id="vertical.6" lane="3si_1" pos="142.32" x="504.95" y="393.82" speed="13.41"/>
        <vehicle id="vertical.7" lane="3si_1" pos="9.18" x="504.95" y="260.68" speed="12.19"/>
        <vehicle id="vertical.8" lane="3fi_0" pos="154.13" x="501.65" y="154.13" speed="10.98"/>
        <vehicle id="vertical.9" lane="3fi_0" pos="42.12" x="501.65" y="42.12" speed="10.69"/>
    </timestep>
    <timestep time="210.00" id="test1" vType="DEFAULT_VEHTYPE">
        <vehicle id="always_left.0" lane="4fi_0" pos="152.96" x="498.35" y="847.04" speed="10.31"/>
        <vehicle id="always_left.1" lane="4fi_0" pos="19.57" x="498.35" y="980.43" speed="9.95"/>
        <vehicle id="always_left.10" lane="1fi_0" pos="84.99" x="84.99" y="498.35" speed="10.35"/>
        <vehicle id="always_left.11" lane="1fi_0" pos="5.10" x="5.10" y="498.35" speed="0.00"/>
        <vehicle id="always_left.2" lane="4o_0" pos="421.38" x="501.65" y="932.73" speed="10.91"/>
        <vehicle id="always_left.3" lane="4o_0" pos="343.22" x="501.65" y="854.57" speed="9.85"/>
        <vehicle id="always_left.4" lane="1si_2" pos="236.15" x="487.65" y="498.35" speed="0.00"/>
        <vehicle id="always_left.5" lane="1si_2" pos="228.65" x="480.15" y="498.35" speed="0.00"/>
        <vehicle id="always_left.6" lane="1si_2" pos="221.15" x="472.65" y="498.35" speed="0.00"/>
        <vehicle id="always_left.7" lane="1si_2" pos="180.80" x="432.30" y="498.35" speed="12.77"/>
        <vehicle id="always_left.8" lane="1si_2" pos="49.10" x="300.60" y="498.35" speed="13.53"/>
        <vehicle id="always_left.9" lane="1fi_0" pos="182.61" x="182.61" y="498.35" speed="10.25"/>
        <vehicle id="always_right.0" lane="2o_0" pos="292.01" x="803.36" y="498.35" speed="10.21"/>
        <vehicle id="always_right.1" lane="2o_0" pos="258.31" x="769.66" y="498.35" speed="10.62"/>
        <vehicle id="always_right.10" lane="3fi_0" pos="80.98" x="501.65" y="80.98" speed="10.54"/>
        <vehicle id="always_right.11" lane="3fi_0" pos="5.10" x="501.65" y="5.10" speed="0.00"/>
        <vehicle id="always_right.2" lane="2o_0" pos="237.08" x="748.43" y="498.35" speed="10.27"/>
        <vehicle id="always_right.3" lane="2o_0" pos="216.49" x="727.84" y="498.35" speed="10.47"/>
        <vehicle id="always_right.4" lane="2o_0" pos="197.20" x="708.55" y="498.35" speed="10.01"/>
        <vehicle id="always_right.5" lane="2o_0" pos="149.33" x="660.68" y="498.35" speed="10.91"/>
        <vehicle id="always_right.6" lane="2o_0" pos="43.51" x="554.86" y="498.35" speed="10.74"/>
        <vehicle id="always_right.7" lane="3si_0" pos="172.21" x="508.25" y="423.71" speed="12.89"/>
        <vehicle id="always_right.8" lane="3si_0" pos="47.98" x="508.25" y="299.48" speed="13.19"/>
        <vehicle id="always_right.9" lane="3fi_0" pos="183.68" x="501.65" y="183.68" speed="10.51"/>
        <vehicle id="horizontal.0" lane="1fi_0" pos="163.30" x="163.30" y="498.35" speed="10.59"/>
        <vehicle id="horizontal.1" lane="1fi_0" pos="54.92" x="54.92" y="498.35" speed="10.24"/>
        <vehicle id="horizontal.10" lane="2fi_0" pos="82.48" x="917.52" y="501.65" speed="9.97"/>
        <vehicle id="horizontal.11" lane="2fi_0" pos="5.10" x="994.90" y="501.65" speed="0.00"/>
        <vehicle id="horizontal.2" lane="1o_0" pos="448.32" x="40.33" y="501.65" speed="10.59"/>