<?xml version="1.0" encoding="UTF-8"?>

<!-- generated on Thu Sep 15 15:17:39 2016 by SUMO Version dev-SVN-r21424
<?xml version="1.0" encoding="UTF-8"?>

<configuration xmlns:xsi="http://www.w3.org/2001/XMLSchema-instance" xsi:noNamespaceSchemaLocation="http://sumo.dlr.de/xsd/sumoConfiguration.xsd">

    <input>
        <net-file value="three_split.net.xml"/>
        <route-files value="input_routes.rou.xml"/>
    </input>

    <output>
        <link-output value="linkstate.xml"/>
    </output>

    <processing>
        <step-method.ballistic value="true"/>
    </processing>

    <report>
        <xml-validation value="never"/>
        <no-step-log value="true"/>
    </report>

</configuration>
-->

<link-output>
    <timestep id="0.00"/>
    <timestep id="1.00">
        <link from="right2end_0" via="" to="end_0">
            <approaching id="0" impatience="0.00" arrivalTime="3.72" arrivalTimeBraking="3.72" leaveTime="6.81" arrivalSpeed="5.00" arrivalSpeedBraking="-nan" leaveSpeed="1.07" willPass="1"/>
        </link>
    </timestep>
    <timestep id="2.00">
        <link from="right2end_0" via="" to="end_0">
            <approaching id="0" impatience="0.00" arrivalTime="3.73" arrivalTimeBraking="4.31" leaveTime="6.82" arrivalSpeed="5.00" arrivalSpeedBraking="3.25" leaveSpeed="1.07" willPass="1"/>
        </link>
    </timestep>
    <timestep id="3.00">
        <link from="right2end_0" via="" to="end_0">
            <approaching id="0" impatience="0.00" arrivalTime="3.95" arrivalTimeBraking="4.72" leaveTime="7.05" arrivalSpeed="5.00" arrivalSpeedBraking="2.93" leaveSpeed="1.07" willPass="1"/>
        </link>
    </timestep>
    <timestep id="4.00">
        <link from="right2end_0" via="" to="end_0">
            <approaching id="0" impatience="0.00" arrivalTime="4.23" arrivalTimeBraking="5.17" leaveTime="7.33" arrivalSpeed="5.00" arrivalSpeedBraking="2.56" leaveSpeed="1.07" willPass="1"/>
        </link>
    </timestep>
    <timestep id="5.00">
        <link from="right2end_0" via="" to="end_0">
            <approaching id="0" impatience="0.00" arrivalTime="4.76" arrivalTimeBraking="5.69" leaveTime="7.85" arrivalSpeed="5.00" arrivalSpeedBraking="2.14" leaveSpeed="1.07" willPass="1"/>
        </link>
    </timestep>
    <timestep id="6.00">
        <link from="right2end_0" via="" to="end_0">
            <approaching id="0" impatience="0.00" arrivalTime="6.18" arrivalTimeBraking="6.30" leaveTime="8.79" arrivalSpeed="6.12" arrivalSpeedBraking="1.60" leaveSpeed="1.07" willPass="1"/>
        </link>
    </timestep>
    <timestep id="7.00">
        <link from="right2end_0" via="" to="end_0">
            <approaching id="0" impatience="0.00" arrivalTime="7.04" arrivalTimeBraking="7.07" leaveTime="10.38" arrivalSpeed="4.54" arrivalSpeedBraking="0.75" leaveSpeed="1.07" willPass="1"/>
        </link>
    </timestep>
    <timestep id="8.00"/>
    <timestep id="9.00"/>
    <timestep id="10.00"/>
    <timestep id="11.00"/>
    <timestep id="12.00"/>
    <timestep id="13.00"/>
    <timestep id="14.00"/>
    <timestep id="15.00"/>
    <timestep id="16.00"/>
    <timestep id="17.00"/>
    <timestep id="18.00"/>
    <timestep id="19.00"/>
    <timestep id="20.00"/>
    <timestep id="21.00"/>
    <timestep id="22.00"/>
    <timestep id="23.00"/>
    <timestep id="24.00"/>
    <timestep id="25.00"/>
    <timestep id="26.00">
        <link from="right2end_0" via="" to="end_0">
            <approaching id="1" impatience="0.00" arrivalTime="28.72" arrivalTimeBraking="28.72" leaveTime="30.19" arrivalSpeed="5.00" arrivalSpeedBraking="-nan" leaveSpeed="7.75" willPass="1"/>
        </link>
    </timestep>
    <timestep id="27.00">
        <link from="right2end_0" via="" to="end_0">
            <approaching id="1" impatience="0.00" arrivalTime="28.73" arrivalTimeBraking="29.31" leaveTime="30.20" arrivalSpeed="5.00" arrivalSpeedBraking="3.25" leaveSpeed="7.75" willPass="1"/>
        </link>
    </timestep>
    <timestep id="28.00">
        <link from="right2end_0" via="" to="end_0">
            <approaching id="1" impatience="0.00" arrivalTime="28.95" arrivalTimeBraking="29.72" leaveTime="30.42" arrivalSpeed="5.00" arrivalSpeedBraking="2.93" leaveSpeed="7.75" willPass="1"/>
        </link>
    </timestep>
    <timestep id="29.00">
        <link from="right2end_0" via="" to="end_0">
            <approaching id="1" impatience="0.00" arrivalTime="29.23" arrivalTimeBraking="30.17" leaveTime="30.70" arrivalSpeed="5.00" arrivalSpeedBraking="2.56" leaveSpeed="7.75" willPass="1"/>
        </link>
    </timestep>
    <timestep id="30.00">
        <link from="right2end_0" via="" to="end_0">
            <approaching id="1" impatience="0.00" arrivalTime="29.76" arrivalTimeBraking="30.69" leaveTime="31.23" arrivalSpeed="5.00" arrivalSpeedBraking="2.14" leaveSpeed="7.75" willPass="1"/>
        </link>
    </timestep>
    <timestep id="31.00">
        <link from="right2end_0" via="" to="end_0">
            <approaching id="1" impatience="0.00" arrivalTime="31.18" arrivalTimeBraking="31.30" leaveTime="32.47" arrivalSpeed="6.12" arrivalSpeedBraking="1.60" leaveSpeed="8.52" willPass="1"/>
        </link>
    </timestep>
    <timestep id="32.00">
        <link from="right2end_0" via="" to="end_0">
            <approaching id="1" impatience="0.00" arrivalTime="32.04" arrivalTimeBraking="32.07" leaveTime="33.60" arrivalSpeed="4.54" arrivalSpeedBraking="0.75" leaveSpeed="7.46" willPass="1"/>
        </link>
    </timestep>
    <timestep id="33.00"/>
    <timestep id="34.00"/>
    <timestep id="35.00"/>
    <timestep id="36.00"/>
    <timestep id="37.00"/>
    <timestep id="38.00"/>
    <timestep id="39.00"/>
    <timestep id="40.00"/>
    <timestep id="41.00"/>
    <timestep id="42.00"/>
    <timestep id="43.00"/>
    <timestep id="44.00"/>
    <timestep id="45.00"/>
    <timestep id="46.00"/>
    <timestep id="47.00"/>
    <timestep id="48.00"/>
    <timestep id="49.00"/>
    <timestep id="50.00"/>
    <timestep id="51.00"/>
    <timestep id="52.00"/>
    <timestep id="53.00"/>
    <timestep id="54.00"/>
    <timestep id="55.00"/>
    <timestep id="56.00"/>
    <timestep id="57.00"/>
    <timestep id="58.00"/>
    <timestep id="59.00"/>
    <timestep id="60.00"/>
    <timestep id="61.00"/>
    <timestep id="62.00"/>
    <timestep id="63.00"/>
    <timestep id="64.00"/>
    <timestep id="65.00"/>
    <timestep id="66.00"/>
    <timestep id="67.00"/>
    <timestep id="68.00"/>
    <timestep id="69.00"/>
    <timestep id="70.00"/>
    <timestep id="71.00"/>
    <timestep id="72.00"/>
    <timestep id="73.00"/>
</link-output>
