<?xml version="1.0" encoding="UTF-8"?>

<!-- generated on Thu Sep  8 11:30:45 2016 by SUMO Version dev-SVN-r21424
<?xml version="1.0" encoding="UTF-8"?>

<configuration xmlns:xsi="http://www.w3.org/2001/XMLSchema-instance" xsi:noNamespaceSchemaLocation="http://sumo.dlr.de/xsd/sumoConfiguration.xsd">

    <input>
        <net-file value="net.net.xml"/>
        <route-files value="input_routes.rou.xml"/>
        <additional-files value="input_additional.add.xml"/>
    </input>

    <time>
        <begin value="10000"/>
    </time>

    <processing>
        <step-method.ballistic value="true"/>
    </processing>

    <report>
        <xml-validation value="never"/>
        <duration-log.disable value="true"/>
        <no-step-log value="true"/>
    </report>

</configuration>
-->

<tls-switch-states>
    <tlsstate time="10000.00" id="0" programID="0" phase="0" state="GGggrrrrGGggrrrr"/>
    <tlsstate time="10009.00" id="0" programID="0" phase="1" state="yyggrrrryyggrrrr"/>
    <tlsstate time="10013.00" id="0" programID="0" phase="2" state="rrGGrrrrrrGGrrrr"/>
    <tlsstate time="10019.00" id="0" programID="0" phase="3" state="rryyrrrrrryyrrrr"/>
    <tlsstate time="10023.00" id="0" programID="0" phase="4" state="rrrrGGggrrrrGGgg"/>
    <tlsstate time="10032.00" id="0" programID="0" phase="5" state="rrrryyggrrrryygg"/>
    <tlsstate time="10036.00" id="0" programID="0" phase="6" state="rrrrrrGGrrrrrrGG"/>
    <tlsstate time="10042.00" id="0" programID="0" phase="7" state="rrrrrryyrrrrrryy"/>
    <tlsstate time="10046.00" id="0" programID="0" phase="0" state="GGggrrrrGGggrrrr"/>
    <tlsstate time="10055.00" id="0" programID="0" phase="1" state="yyggrrrryyggrrrr"/>
    <tlsstate time="10059.00" id="0" programID="0" phase="2" state="rrGGrrrrrrGGrrrr"/>
    <tlsstate time="10065.00" id="0" programID="0" phase="3" state="rryyrrrrrryyrrrr"/>
    <tlsstate time="10069.00" id="0" programID="0" phase="4" state="rrrrGGggrrrrGGgg"/>
    <tlsstate time="10089.00" id="0" programID="0" phase="5" state="rrrryyggrrrryygg"/>
    <tlsstate time="10093.00" id="0" programID="0" phase="6" state="rrrrrrGGrrrrrrGG"/>
    <tlsstate time="10099.00" id="0" programID="0" phase="7" state="rrrrrryyrrrrrryy"/>
    <tlsstate time="10103.00" id="0" programID="0" phase="0" state="GGggrrrrGGggrrrr"/>
    <tlsstate time="10112.00" id="0" programID="0" phase="1" state="yyggrrrryyggrrrr"/>
    <tlsstate time="10116.00" id="0" programID="0" phase="2" state="rrGGrrrrrrGGrrrr"/>
    <tlsstate time="10122.00" id="0" programID="0" phase="3" state="rryyrrrrrryyrrrr"/>
    <tlsstate time="10126.00" id="0" programID="0" phase="4" state="rrrrGGggrrrrGGgg"/>
    <tlsstate time="10155.00" id="0" programID="0" phase="5" state="rrrryyggrrrryygg"/>
    <tlsstate time="10159.00" id="0" programID="0" phase="6" state="rrrrrrGGrrrrrrGG"/>
    <tlsstate time="10165.00" id="0" programID="0" phase="7" state="rrrrrryyrrrrrryy"/>
    <tlsstate time="10169.00" id="0" programID="0" phase="0" state="GGggrrrrGGggrrrr"/>
    <tlsstate time="10210.00" id="0" programID="0" phase="1" state="yyggrrrryyggrrrr"/>
    <tlsstate time="10214.00" id="0" programID="0" phase="2" state="rrGGrrrrrrGGrrrr"/>
    <tlsstate time="10220.00" id="0" programID="0" phase="3" state="rryyrrrrrryyrrrr"/>
    <tlsstate time="10224.00" id="0" programID="0" phase="4" state="rrrrGGggrrrrGGgg"/>
    <tlsstate time="10265.00" id="0" programID="0" phase="5" state="rrrryyggrrrryygg"/>
    <tlsstate time="10269.00" id="0" programID="0" phase="6" state="rrrrrrGGrrrrrrGG"/>
    <tlsstate time="10275.00" id="0" programID="0" phase="7" state="rrrrrryyrrrrrryy"/>
    <tlsstate time="10279.00" id="0" programID="0" phase="0" state="GGggrrrrGGggrrrr"/>
    <tlsstate time="10294.00" id="0" programID="0" phase="1" state="yyggrrrryyggrrrr"/>
    <tlsstate time="10298.00" id="0" programID="0" phase="2" state="rrGGrrrrrrGGrrrr"/>
    <tlsstate time="10304.00" id="0" programID="0" phase="3" state="rryyrrrrrryyrrrr"/>
    <tlsstate time="10308.00" id="0" programID="0" phase="4" state="rrrrGGggrrrrGGgg"/>
    <tlsstate time="10326.00" id="0" programID="0" phase="5" state="rrrryyggrrrryygg"/>
    <tlsstate time="10330.00" id="0" programID="0" phase="6" state="rrrrrrGGrrrrrrGG"/>
    <tlsstate time="10336.00" id="0" programID="0" phase="7" state="rrrrrryyrrrrrryy"/>
    <tlsstate time="10340.00" id="0" programID="0" phase="0" state="GGggrrrrGGggrrrr"/>
    <tlsstate time="10349.00" id="0" programID="0" phase="1" state="yyggrrrryyggrrrr"/>
    <tlsstate time="10353.00" id="0" programID="0" phase="2" state="rrGGrrrrrrGGrrrr"/>
    <tlsstate time="10359.00" id="0" programID="0" phase="3" state="rryyrrrrrryyrrrr"/>
    <tlsstate time="10363.00" id="0" programID="0" phase="4" state="rrrrGGggrrrrGGgg"/>
    <tlsstate time="10417.00" id="0" programID="0" phase="5" state="rrrryyggrrrryygg"/>
    <tlsstate time="10421.00" id="0" programID="0" phase="6" state="rrrrrrGGrrrrrrGG"/>
    <tlsstate time="10427.00" id="0" programID="0" phase="7" state="rrrrrryyrrrrrryy"/>
    <tlsstate time="10431.00" id="0" programID="0" phase="0" state="GGggrrrrGGggrrrr"/>
    <tlsstate time="10440.00" id="0" programID="0" phase="1" state="yyggrrrryyggrrrr"/>
    <tlsstate time="10444.00" id="0" programID="0" phase="2" state="rrGGrrrrrrGGrrrr"/>
    <tlsstate time="10450.00" id="0" programID="0" phase="3" state="rryyrrrrrryyrrrr"/>
    <tlsstate time="10454.00" id="0" programID="0" phase="4" state="rrrrGGggrrrrGGgg"/>
    <tlsstate time="10463.00" id="0" programID="0" phase="5" state="rrrryyggrrrryygg"/>
    <tlsstate time="10467.00" id="0" programID="0" phase="6" state="rrrrrrGGrrrrrrGG"/>
    <tlsstate time="10473.00" id="0" programID="0" phase="7" state="rrrrrryyrrrrrryy"/>
    <tlsstate time="10477.00" id="0" programID="0" phase="0" state="GGggrrrrGGggrrrr"/>
    <tlsstate time="10486.00" id="0" programID="0" phase="1" state="yyggrrrryyggrrrr"/>
    <tlsstate time="10490.00" id="0" programID="0" phase="2" state="rrGGrrrrrrGGrrrr"/>
    <tlsstate time="10496.00" id="0" programID="0" phase="3" state="rryyrrrrrryyrrrr"/>
    <tlsstate time="10500.00" id="0" programID="0" phase="4" state="rrrrGGggrrrrGGgg"/>
</tls-switch-states>
