<?xml version="1.0" encoding="UTF-8"?>

<!-- generated on Mon May 30 14:25:35 2016 by SUMO Version dev-SVN-r20808
<?xml version="1.0" encoding="UTF-8"?>

<configuration xmlns:xsi="http://www.w3.org/2001/XMLSchema-instance" xsi:noNamespaceSchemaLocation="http://sumo.dlr.de/xsd/sumoConfiguration.xsd">

    <input>
        <net-file value="net.net.xml"/>
        <route-files value="input_routes.rou.xml"/>
        <additional-files value="input_additional.add.xml"/>
    </input>

    <time>
        <begin value="10000"/>
    </time>

    <report>
        <xml-validation value="never"/>
        <duration-log.disable value="true"/>
        <no-step-log value="true"/>
    </report>

</configuration>
-->

<tls-switch-states>
    <tlsstate time="10000.00" id="0" programID="0" phase="0" state="GGggrrrrGGggrrrr"/>
    <tlsstate time="10009.00" id="0" programID="0" phase="1" state="yyggrrrryyggrrrr"/>
    <tlsstate time="10013.00" id="0" programID="0" phase="2" state="rrGGrrrrrrGGrrrr"/>
    <tlsstate time="10019.00" id="0" programID="0" phase="3" state="rryyrrrrrryyrrrr"/>
    <tlsstate time="10023.00" id="0" programID="0" phase="4" state="rrrrGGggrrrrGGgg"/>
    <tlsstate time="10032.00" id="0" programID="0" phase="5" state="rrrryyggrrrryygg"/>
    <tlsstate time="10036.00" id="0" programID="0" phase="6" state="rrrrrrGGrrrrrrGG"/>
    <tlsstate time="10042.00" id="0" programID="0" phase="7" state="rrrrrryyrrrrrryy"/>
    <tlsstate time="10046.00" id="0" programID="0" phase="0" state="GGggrrrrGGggrrrr"/>
    <tlsstate time="10055.00" id="0" programID="0" phase="1" state="yyggrrrryyggrrrr"/>
    <tlsstate time="10059.00" id="0" programID="0" phase="2" state="rrGGrrrrrrGGrrrr"/>
    <tlsstate time="10065.00" id="0" programID="0" phase="3" state="rryyrrrrrryyrrrr"/>
    <tlsstate time="10069.00" id="0" programID="0" phase="4" state="rrrrGGggrrrrGGgg"/>
    <tlsstate time="10089.00" id="0" programID="0" phase="5" state="rrrryyggrrrryygg"/>
    <tlsstate time="10093.00" id="0" programID="0" phase="6" state="rrrrrrGGrrrrrrGG"/>
    <tlsstate time="10099.00" id="0" programID="0" phase="7" state="rrrrrryyrrrrrryy"/>
    <tlsstate time="10103.00" id="0" programID="0" phase="0" state="GGggrrrrGGggrrrr"/>
    <tlsstate time="10112.00" id="0" programID="0" phase="1" state="yyggrrrryyggrrrr"/>
    <tlsstate time="10116.00" id="0" programID="0" phase="2" state="rrGGrrrrrrGGrrrr"/>
    <tlsstate time="10122.00" id="0" programID="0" phase="3" state="rryyrrrrrryyrrrr"/>
    <tlsstate time="10126.00" id="0" programID="0" phase="4" state="rrrrGGggrrrrGGgg"/>
    <tlsstate time="10155.00" id="0" programID="0" phase="5" state="rrrryyggrrrryygg"/>
    <tlsstate time="10159.00" id="0" programID="0" phase="6" state="rrrrrrGGrrrrrrGG"/>
    <tlsstate time="10165.00" id="0" programID="0" phase="7" state="rrrrrryyrrrrrryy"/>
    <tlsstate time="10169.00" id="0" programID="0" phase="0" state="GGggrrrrGGggrrrr"/>
    <tlsstate time="10210.00" id="0" programID="0" phase="1" state="yyggrrrryyggrrrr"/>
    <tlsstate time="10214.00" id="0" programID="0" phase="2" state="rrGGrrrrrrGGrrrr"/>
    <tlsstate time="10220.00" id="0" programID="0" phase="3" state="rryyrrrrrryyrrrr"/>
    <tlsstate time="10224.00" id="0" programID="0" phase="4" state="rrrrGGggrrrrGGgg"/>
    <tlsstate time="10265.00" id="0" programID="0" phase="5" state="rrrryyggrrrryygg"/>
    <tlsstate time="10269.00" id="0" programID="0" phase="6" state="rrrrrrGGrrrrrrGG"/>
    <tlsstate time="10275.00" id="0" programID="0" phase="7" state="rrrrrryyrrrrrryy"/>
    <tlsstate time="10279.00" id="0" programID="0" phase="0" state="GGggrrrrGGggrrrr"/>
    <tlsstate time="10294.00" id="0" programID="0" phase="1" state="yyggrrrryyggrrrr"/>
    <tlsstate time="10298.00" id="0" programID="0" phase="2" state="rrGGrrrrrrGGrrrr"/>
    <tlsstate time="10304.00" id="0" programID="0" phase="3" state="rryyrrrrrryyrrrr"/>
    <tlsstate time="10308.00" id="0" programID="0" phase="4" state="rrrrGGggrrrrGGgg"/>
    <tlsstate time="10326.00" id="0" programID="0" phase="5" state="rrrryyggrrrryygg"/>
    <tlsstate time="10330.00" id="0" programID="0" phase="6" state="rrrrrrGGrrrrrrGG"/>
    <tlsstate time="10336.00" id="0" programID="0" phase="7" state="rrrrrryyrrrrrryy"/>
    <tlsstate time="10340.00" id="0" programID="0" phase="0" state="GGggrrrrGGggrrrr"/>
    <tlsstate time="10349.00" id="0" programID="0" phase="1" state="yyggrrrryyggrrrr"/>
    <tlsstate time="10353.00" id="0" programID="0" phase="2" state="rrGGrrrrrrGGrrrr"/>
    <tlsstate time="10359.00" id="0" programID="0" phase="3" state="rryyrrrrrryyrrrr"/>
    <tlsstate time="10363.00" id="0" programID="0" phase="4" state="rrrrGGggrrrrGGgg"/>
    <tlsstate time="10423.00" id="0" programID="0" phase="5" state="rrrryyggrrrryygg"/>
    <tlsstate time="10427.00" id="0" programID="0" phase="6" state="rrrrrrGGrrrrrrGG"/>
    <tlsstate time="10433.00" id="0" programID="0" phase="7" state="rrrrrryyrrrrrryy"/>
    <tlsstate time="10437.00" id="0" programID="0" phase="0" state="GGggrrrrGGggrrrr"/>
    <tlsstate time="10447.00" id="0" programID="0" phase="1" state="yyggrrrryyggrrrr"/>
    <tlsstate time="10451.00" id="0" programID="0" phase="2" state="rrGGrrrrrrGGrrrr"/>
    <tlsstate time="10457.00" id="0" programID="0" phase="3" state="rryyrrrrrryyrrrr"/>
    <tlsstate time="10461.00" id="0" programID="0" phase="4" state="rrrrGGggrrrrGGgg"/>
    <tlsstate time="10470.00" id="0" programID="0" phase="5" state="rrrryyggrrrryygg"/>
    <tlsstate time="10474.00" id="0" programID="0" phase="6" state="rrrrrrGGrrrrrrGG"/>
    <tlsstate time="10480.00" id="0" programID="0" phase="7" state="rrrrrryyrrrrrryy"/>
    <tlsstate time="10484.00" id="0" programID="0" phase="0" state="GGggrrrrGGggrrrr"/>
    <tlsstate time="10493.00" id="0" programID="0" phase="1" state="yyggrrrryyggrrrr"/>
    <tlsstate time="10497.00" id="0" programID="0" phase="2" state="rrGGrrrrrrGGrrrr"/>
    <tlsstate time="10503.00" id="0" programID="0" phase="3" state="rryyrrrrrryyrrrr"/>
    <tlsstate time="10507.00" id="0" programID="0" phase="4" state="rrrrGGggrrrrGGgg"/>
</tls-switch-states>
