<?xml version="1.0" encoding="UTF-8"?>

<!-- generated on Thu Sep  8 11:30:45 2016 by SUMO Version dev-SVN-r21424
<?xml version="1.0" encoding="UTF-8"?>

<configuration xmlns:xsi="http://www.w3.org/2001/XMLSchema-instance" xsi:noNamespaceSchemaLocation="http://sumo.dlr.de/xsd/sumoConfiguration.xsd">

    <input>
        <net-file value="net.net.xml"/>
        <route-files value="input_routes.rou.xml"/>
        <additional-files value="input_additional.add.xml"/>
    </input>

    <processing>
        <step-method.ballistic value="true"/>
    </processing>

    <report>
        <xml-validation value="never"/>
        <duration-log.disable value="true"/>
        <no-step-log value="true"/>
    </report>

</configuration>
-->

<tls-switch-states>
    <tlsstate time="0.00" id="0" programID="actuated_additional" phase="0" state="GGggrrrrGGggrrrr"/>
    <tlsstate time="5.00" id="0" programID="actuated_additional" phase="1" state="yyggrrrryyggrrrr"/>
    <tlsstate time="9.00" id="0" programID="actuated_additional" phase="2" state="rrGGrrrrrrGGrrrr"/>
    <tlsstate time="15.00" id="0" programID="actuated_additional" phase="3" state="rryyrrrrrryyrrrr"/>
    <tlsstate time="19.00" id="0" programID="actuated_additional" phase="4" state="rrrrGGggrrrrGGgg"/>
    <tlsstate time="31.00" id="0" programID="actuated_additional" phase="5" state="rrrryyggrrrryygg"/>
    <tlsstate time="35.00" id="0" programID="actuated_additional" phase="6" state="rrrrrrGGrrrrrrGG"/>
    <tlsstate time="41.00" id="0" programID="actuated_additional" phase="7" state="rrrrrryyrrrrrryy"/>
    <tlsstate time="45.00" id="0" programID="actuated_additional" phase="0" state="GGggrrrrGGggrrrr"/>
    <tlsstate time="53.00" id="0" programID="actuated_additional" phase="1" state="yyggrrrryyggrrrr"/>
    <tlsstate time="57.00" id="0" programID="actuated_additional" phase="2" state="rrGGrrrrrrGGrrrr"/>
    <tlsstate time="63.00" id="0" programID="actuated_additional" phase="3" state="rryyrrrrrryyrrrr"/>
    <tlsstate time="67.00" id="0" programID="actuated_additional" phase="4" state="rrrrGGggrrrrGGgg"/>
    <tlsstate time="90.00" id="0" programID="actuated_additional" phase="5" state="rrrryyggrrrryygg"/>
    <tlsstate time="94.00" id="0" programID="actuated_additional" phase="6" state="rrrrrrGGrrrrrrGG"/>
    <tlsstate time="100.00" id="0" programID="actuated_additional" phase="7" state="rrrrrryyrrrrrryy"/>
    <tlsstate time="104.00" id="0" programID="actuated_additional" phase="0" state="GGggrrrrGGggrrrr"/>
    <tlsstate time="109.00" id="0" programID="actuated_additional" phase="1" state="yyggrrrryyggrrrr"/>
    <tlsstate time="113.00" id="0" programID="actuated_additional" phase="2" state="rrGGrrrrrrGGrrrr"/>
    <tlsstate time="119.00" id="0" programID="actuated_additional" phase="3" state="rryyrrrrrryyrrrr"/>
    <tlsstate time="123.00" id="0" programID="actuated_additional" phase="4" state="rrrrGGggrrrrGGgg"/>
    <tlsstate time="153.00" id="0" programID="actuated_additional" phase="5" state="rrrryyggrrrryygg"/>
    <tlsstate time="157.00" id="0" programID="actuated_additional" phase="6" state="rrrrrrGGrrrrrrGG"/>
    <tlsstate time="163.00" id="0" programID="actuated_additional" phase="7" state="rrrrrryyrrrrrryy"/>
    <tlsstate time="167.00" id="0" programID="actuated_additional" phase="0" state="GGggrrrrGGggrrrr"/>
    <tlsstate time="180.00" id="0" programID="actuated_additional" phase="1" state="yyggrrrryyggrrrr"/>
    <tlsstate time="184.00" id="0" programID="actuated_additional" phase="2" state="rrGGrrrrrrGGrrrr"/>
    <tlsstate time="190.00" id="0" programID="actuated_additional" phase="3" state="rryyrrrrrryyrrrr"/>
    <tlsstate time="194.00" id="0" programID="actuated_additional" phase="4" state="rrrrGGggrrrrGGgg"/>
    <tlsstate time="223.00" id="0" programID="actuated_additional" phase="5" state="rrrryyggrrrryygg"/>
    <tlsstate time="227.00" id="0" programID="actuated_additional" phase="6" state="rrrrrrGGrrrrrrGG"/>
    <tlsstate time="233.00" id="0" programID="actuated_additional" phase="7" state="rrrrrryyrrrrrryy"/>
    <tlsstate time="237.00" id="0" programID="actuated_additional" phase="0" state="GGggrrrrGGggrrrr"/>
    <tlsstate time="248.00" id="0" programID="actuated_additional" phase="1" state="yyggrrrryyggrrrr"/>
    <tlsstate time="252.00" id="0" programID="actuated_additional" phase="2" state="rrGGrrrrrrGGrrrr"/>
    <tlsstate time="258.00" id="0" programID="actuated_additional" phase="3" state="rryyrrrrrryyrrrr"/>
    <tlsstate time="262.00" id="0" programID="actuated_additional" phase="4" state="rrrrGGggrrrrGGgg"/>
    <tlsstate time="277.00" id="0" programID="actuated_additional" phase="5" state="rrrryyggrrrryygg"/>
    <tlsstate time="281.00" id="0" programID="actuated_additional" phase="6" state="rrrrrrGGrrrrrrGG"/>
    <tlsstate time="287.00" id="0" programID="actuated_additional" phase="7" state="rrrrrryyrrrrrryy"/>
    <tlsstate time="291.00" id="0" programID="actuated_additional" phase="0" state="GGggrrrrGGggrrrr"/>
    <tlsstate time="314.00" id="0" programID="actuated_additional" phase="1" state="yyggrrrryyggrrrr"/>
    <tlsstate time="318.00" id="0" programID="actuated_additional" phase="2" state="rrGGrrrrrrGGrrrr"/>
    <tlsstate time="324.00" id="0" programID="actuated_additional" phase="3" state="rryyrrrrrryyrrrr"/>
    <tlsstate time="328.00" id="0" programID="actuated_additional" phase="4" state="rrrrGGggrrrrGGgg"/>
    <tlsstate time="375.00" id="0" programID="actuated_additional" phase="5" state="rrrryyggrrrryygg"/>
    <tlsstate time="379.00" id="0" programID="actuated_additional" phase="6" state="rrrrrrGGrrrrrrGG"/>
    <tlsstate time="385.00" id="0" programID="actuated_additional" phase="7" state="rrrrrryyrrrrrryy"/>
    <tlsstate time="389.00" id="0" programID="actuated_additional" phase="0" state="GGggrrrrGGggrrrr"/>
    <tlsstate time="402.00" id="0" programID="actuated_additional" phase="1" state="yyggrrrryyggrrrr"/>
    <tlsstate time="406.00" id="0" programID="actuated_additional" phase="2" state="rrGGrrrrrrGGrrrr"/>
    <tlsstate time="412.00" id="0" programID="actuated_additional" phase="3" state="rryyrrrrrryyrrrr"/>
    <tlsstate time="416.00" id="0" programID="actuated_additional" phase="4" state="rrrrGGggrrrrGGgg"/>
    <tlsstate time="436.00" id="0" programID="actuated_additional" phase="5" state="rrrryyggrrrryygg"/>
    <tlsstate time="440.00" id="0" programID="actuated_additional" phase="6" state="rrrrrrGGrrrrrrGG"/>
    <tlsstate time="446.00" id="0" programID="actuated_additional" phase="7" state="rrrrrryyrrrrrryy"/>
    <tlsstate time="450.00" id="0" programID="actuated_additional" phase="0" state="GGggrrrrGGggrrrr"/>
    <tlsstate time="455.00" id="0" programID="actuated_additional" phase="1" state="yyggrrrryyggrrrr"/>
    <tlsstate time="459.00" id="0" programID="actuated_additional" phase="2" state="rrGGrrrrrrGGrrrr"/>
    <tlsstate time="465.00" id="0" programID="actuated_additional" phase="3" state="rryyrrrrrryyrrrr"/>
    <tlsstate time="469.00" id="0" programID="actuated_additional" phase="4" state="rrrrGGggrrrrGGgg"/>
    <tlsstate time="474.00" id="0" programID="actuated_additional" phase="5" state="rrrryyggrrrryygg"/>
    <tlsstate time="478.00" id="0" programID="actuated_additional" phase="6" state="rrrrrrGGrrrrrrGG"/>
    <tlsstate time="484.00" id="0" programID="actuated_additional" phase="7" state="rrrrrryyrrrrrryy"/>
    <tlsstate time="488.00" id="0" programID="actuated_additional" phase="0" state="GGggrrrrGGggrrrr"/>
    <tlsstate time="493.00" id="0" programID="actuated_additional" phase="1" state="yyggrrrryyggrrrr"/>
    <tlsstate time="497.00" id="0" programID="actuated_additional" phase="2" state="rrGGrrrrrrGGrrrr"/>
</tls-switch-states>
