<?xml version="1.0" encoding="UTF-8"?>

<!-- generated on Tue Apr  5 13:40:38 2016 by SUMO Version dev-SVN-r20343
<?xml version="1.0" encoding="UTF-8"?>

<configuration xmlns:xsi="http://www.w3.org/2001/XMLSchema-instance" xsi:noNamespaceSchemaLocation="http://sumo.dlr.de/xsd/sumoConfiguration.xsd">

    <input>
        <net-file value="net.net.xml"/>
        <route-files value="input_routes.rou.xml"/>
        <additional-files value="input_additional.add.xml"/>
    </input>

    <report>
        <xml-validation value="never"/>
        <duration-log.disable value="true"/>
        <no-step-log value="true"/>
    </report>

</configuration>
-->

<tls-switch-states>
    <tlsstate time="0.00" id="0" programID="actuated_additional" phase="0" state="GGggrrrrGGggrrrr"/>
    <tlsstate time="5.00" id="0" programID="actuated_additional" phase="1" state="yyggrrrryyggrrrr"/>
    <tlsstate time="9.00" id="0" programID="actuated_additional" phase="2" state="rrGGrrrrrrGGrrrr"/>
    <tlsstate time="15.00" id="0" programID="actuated_additional" phase="3" state="rryyrrrrrryyrrrr"/>
    <tlsstate time="19.00" id="0" programID="actuated_additional" phase="4" state="rrrrGGggrrrrGGgg"/>
    <tlsstate time="31.00" id="0" programID="actuated_additional" phase="5" state="rrrryyggrrrryygg"/>
    <tlsstate time="35.00" id="0" programID="actuated_additional" phase="6" state="rrrrrrGGrrrrrrGG"/>
    <tlsstate time="41.00" id="0" programID="actuated_additional" phase="7" state="rrrrrryyrrrrrryy"/>
    <tlsstate time="45.00" id="0" programID="actuated_additional" phase="0" state="GGggrrrrGGggrrrr"/>
    <tlsstate time="53.00" id="0" programID="actuated_additional" phase="1" state="yyggrrrryyggrrrr"/>
    <tlsstate time="57.00" id="0" programID="actuated_additional" phase="2" state="rrGGrrrrrrGGrrrr"/>
    <tlsstate time="63.00" id="0" programID="actuated_additional" phase="3" state="rryyrrrrrryyrrrr"/>
    <tlsstate time="67.00" id="0" programID="actuated_additional" phase="4" state="rrrrGGggrrrrGGgg"/>
    <tlsstate time="109.00" id="0" programID="actuated_additional" phase="5" state="rrrryyggrrrryygg"/>
    <tlsstate time="113.00" id="0" programID="actuated_additional" phase="6" state="rrrrrrGGrrrrrrGG"/>
    <tlsstate time="119.00" id="0" programID="actuated_additional" phase="7" state="rrrrrryyrrrrrryy"/>
    <tlsstate time="123.00" id="0" programID="actuated_additional" phase="0" state="GGggrrrrGGggrrrr"/>
    <tlsstate time="135.00" id="0" programID="actuated_additional" phase="1" state="yyggrrrryyggrrrr"/>
    <tlsstate time="139.00" id="0" programID="actuated_additional" phase="2" state="rrGGrrrrrrGGrrrr"/>
    <tlsstate time="145.00" id="0" programID="actuated_additional" phase="3" state="rryyrrrrrryyrrrr"/>
    <tlsstate time="149.00" id="0" programID="actuated_additional" phase="4" state="rrrrGGggrrrrGGgg"/>
    <tlsstate time="167.00" id="0" programID="actuated_additional" phase="5" state="rrrryyggrrrryygg"/>
    <tlsstate time="171.00" id="0" programID="actuated_additional" phase="6" state="rrrrrrGGrrrrrrGG"/>
    <tlsstate time="177.00" id="0" programID="actuated_additional" phase="7" state="rrrrrryyrrrrrryy"/>
    <tlsstate time="181.00" id="0" programID="actuated_additional" phase="0" state="GGggrrrrGGggrrrr"/>
    <tlsstate time="202.00" id="0" programID="actuated_additional" phase="1" state="yyggrrrryyggrrrr"/>
    <tlsstate time="206.00" id="0" programID="actuated_additional" phase="2" state="rrGGrrrrrrGGrrrr"/>
    <tlsstate time="212.00" id="0" programID="actuated_additional" phase="3" state="rryyrrrrrryyrrrr"/>
    <tlsstate time="216.00" id="0" programID="actuated_additional" phase="4" state="rrrrGGggrrrrGGgg"/>
    <tlsstate time="265.00" id="0" programID="actuated_additional" phase="5" state="rrrryyggrrrryygg"/>
    <tlsstate time="269.00" id="0" programID="actuated_additional" phase="6" state="rrrrrrGGrrrrrrGG"/>
    <tlsstate time="275.00" id="0" programID="actuated_additional" phase="7" state="rrrrrryyrrrrrryy"/>
    <tlsstate time="279.00" id="0" programID="actuated_additional" phase="0" state="GGggrrrrGGggrrrr"/>
    <tlsstate time="306.00" id="0" programID="actuated_additional" phase="1" state="yyggrrrryyggrrrr"/>
    <tlsstate time="310.00" id="0" programID="actuated_additional" phase="2" state="rrGGrrrrrrGGrrrr"/>
    <tlsstate time="316.00" id="0" programID="actuated_additional" phase="3" state="rryyrrrrrryyrrrr"/>
    <tlsstate time="320.00" id="0" programID="actuated_additional" phase="4" state="rrrrGGggrrrrGGgg"/>
    <tlsstate time="370.00" id="0" programID="actuated_additional" phase="5" state="rrrryyggrrrryygg"/>
    <tlsstate time="374.00" id="0" programID="actuated_additional" phase="6" state="rrrrrrGGrrrrrrGG"/>
    <tlsstate time="380.00" id="0" programID="actuated_additional" phase="7" state="rrrrrryyrrrrrryy"/>
    <tlsstate time="384.00" id="0" programID="actuated_additional" phase="0" state="GGggrrrrGGggrrrr"/>
    <tlsstate time="397.00" id="0" programID="actuated_additional" phase="1" state="yyggrrrryyggrrrr"/>
    <tlsstate time="401.00" id="0" programID="actuated_additional" phase="2" state="rrGGrrrrrrGGrrrr"/>
    <tlsstate time="407.00" id="0" programID="actuated_additional" phase="3" state="rryyrrrrrryyrrrr"/>
    <tlsstate time="411.00" id="0" programID="actuated_additional" phase="4" state="rrrrGGggrrrrGGgg"/>
    <tlsstate time="434.00" id="0" programID="actuated_additional" phase="5" state="rrrryyggrrrryygg"/>
    <tlsstate time="438.00" id="0" programID="actuated_additional" phase="6" state="rrrrrrGGrrrrrrGG"/>
    <tlsstate time="444.00" id="0" programID="actuated_additional" phase="7" state="rrrrrryyrrrrrryy"/>
    <tlsstate time="448.00" id="0" programID="actuated_additional" phase="0" state="GGggrrrrGGggrrrr"/>
    <tlsstate time="453.00" id="0" programID="actuated_additional" phase="1" state="yyggrrrryyggrrrr"/>
    <tlsstate time="457.00" id="0" programID="actuated_additional" phase="2" state="rrGGrrrrrrGGrrrr"/>
    <tlsstate time="463.00" id="0" programID="actuated_additional" phase="3" state="rryyrrrrrryyrrrr"/>
    <tlsstate time="467.00" id="0" programID="actuated_additional" phase="4" state="rrrrGGggrrrrGGgg"/>
    <tlsstate time="472.00" id="0" programID="actuated_additional" phase="5" state="rrrryyggrrrryygg"/>
    <tlsstate time="476.00" id="0" programID="actuated_additional" phase="6" state="rrrrrrGGrrrrrrGG"/>
</tls-switch-states>
