<?xml version="1.0" encoding="UTF-8"?>

<!-- generated on Mon May 30 14:25:35 2016 by SUMO Version dev-SVN-r20808
<?xml version="1.0" encoding="UTF-8"?>

<configuration xmlns:xsi="http://www.w3.org/2001/XMLSchema-instance" xsi:noNamespaceSchemaLocation="http://sumo.dlr.de/xsd/sumoConfiguration.xsd">

    <input>
        <net-file value="net.net.xml"/>
        <route-files value="input_routes.rou.xml"/>
        <additional-files value="input_additional.add.xml"/>
    </input>

    <report>
        <xml-validation value="never"/>
        <duration-log.disable value="true"/>
        <no-step-log value="true"/>
    </report>

</configuration>
-->

<tls-switch-states>
    <tlsstate time="0.00" id="0" programID="actuated_additional" phase="0" state="GGggrrrrGGggrrrr"/>
    <tlsstate time="5.00" id="0" programID="actuated_additional" phase="1" state="yyggrrrryyggrrrr"/>
    <tlsstate time="9.00" id="0" programID="actuated_additional" phase="2" state="rrGGrrrrrrGGrrrr"/>
    <tlsstate time="15.00" id="0" programID="actuated_additional" phase="3" state="rryyrrrrrryyrrrr"/>
    <tlsstate time="19.00" id="0" programID="actuated_additional" phase="4" state="rrrrGGggrrrrGGgg"/>
    <tlsstate time="31.00" id="0" programID="actuated_additional" phase="5" state="rrrryyggrrrryygg"/>
    <tlsstate time="35.00" id="0" programID="actuated_additional" phase="6" state="rrrrrrGGrrrrrrGG"/>
    <tlsstate time="41.00" id="0" programID="actuated_additional" phase="7" state="rrrrrryyrrrrrryy"/>
    <tlsstate time="45.00" id="0" programID="actuated_additional" phase="0" state="GGggrrrrGGggrrrr"/>
    <tlsstate time="53.00" id="0" programID="actuated_additional" phase="1" state="yyggrrrryyggrrrr"/>
    <tlsstate time="57.00" id="0" programID="actuated_additional" phase="2" state="rrGGrrrrrrGGrrrr"/>
    <tlsstate time="63.00" id="0" programID="actuated_additional" phase="3" state="rryyrrrrrryyrrrr"/>
    <tlsstate time="67.00" id="0" programID="actuated_additional" phase="4" state="rrrrGGggrrrrGGgg"/>
    <tlsstate time="90.00" id="0" programID="actuated_additional" phase="5" state="rrrryyggrrrryygg"/>
    <tlsstate time="94.00" id="0" programID="actuated_additional" phase="6" state="rrrrrrGGrrrrrrGG"/>
    <tlsstate time="100.00" id="0" programID="actuated_additional" phase="7" state="rrrrrryyrrrrrryy"/>
    <tlsstate time="104.00" id="0" programID="actuated_additional" phase="0" state="GGggrrrrGGggrrrr"/>
    <tlsstate time="109.00" id="0" programID="actuated_additional" phase="1" state="yyggrrrryyggrrrr"/>
    <tlsstate time="113.00" id="0" programID="actuated_additional" phase="2" state="rrGGrrrrrrGGrrrr"/>
    <tlsstate time="119.00" id="0" programID="actuated_additional" phase="3" state="rryyrrrrrryyrrrr"/>
    <tlsstate time="123.00" id="0" programID="actuated_additional" phase="4" state="rrrrGGggrrrrGGgg"/>
    <tlsstate time="153.00" id="0" programID="actuated_additional" phase="5" state="rrrryyggrrrryygg"/>
    <tlsstate time="157.00" id="0" programID="actuated_additional" phase="6" state="rrrrrrGGrrrrrrGG"/>
    <tlsstate time="163.00" id="0" programID="actuated_additional" phase="7" state="rrrrrryyrrrrrryy"/>
    <tlsstate time="167.00" id="0" programID="actuated_additional" phase="0" state="GGggrrrrGGggrrrr"/>
    <tlsstate time="180.00" id="0" programID="actuated_additional" phase="1" state="yyggrrrryyggrrrr"/>
    <tlsstate time="184.00" id="0" programID="actuated_additional" phase="2" state="rrGGrrrrrrGGrrrr"/>
    <tlsstate time="190.00" id="0" programID="actuated_additional" phase="3" state="rryyrrrrrryyrrrr"/>
    <tlsstate time="194.00" id="0" programID="actuated_additional" phase="4" state="rrrrGGggrrrrGGgg"/>
    <tlsstate time="255.00" id="0" programID="actuated_additional" phase="5" state="rrrryyggrrrryygg"/>
    <tlsstate time="259.00" id="0" programID="actuated_additional" phase="6" state="rrrrrrGGrrrrrrGG"/>
    <tlsstate time="265.00" id="0" programID="actuated_additional" phase="7" state="rrrrrryyrrrrrryy"/>
    <tlsstate time="269.00" id="0" programID="actuated_additional" phase="0" state="GGggrrrrGGggrrrr"/>
    <tlsstate time="294.00" id="0" programID="actuated_additional" phase="1" state="yyggrrrryyggrrrr"/>
    <tlsstate time="298.00" id="0" programID="actuated_additional" phase="2" state="rrGGrrrrrrGGrrrr"/>
    <tlsstate time="304.00" id="0" programID="actuated_additional" phase="3" state="rryyrrrrrryyrrrr"/>
    <tlsstate time="308.00" id="0" programID="actuated_additional" phase="4" state="rrrrGGggrrrrGGgg"/>
    <tlsstate time="327.00" id="0" programID="actuated_additional" phase="5" state="rrrryyggrrrryygg"/>
    <tlsstate time="331.00" id="0" programID="actuated_additional" phase="6" state="rrrrrrGGrrrrrrGG"/>
    <tlsstate time="337.00" id="0" programID="actuated_additional" phase="7" state="rrrrrryyrrrrrryy"/>
    <tlsstate time="341.00" id="0" programID="actuated_additional" phase="0" state="GGggrrrrGGggrrrr"/>
    <tlsstate time="355.00" id="0" programID="actuated_additional" phase="1" state="yyggrrrryyggrrrr"/>
    <tlsstate time="359.00" id="0" programID="actuated_additional" phase="2" state="rrGGrrrrrrGGrrrr"/>
    <tlsstate time="365.00" id="0" programID="actuated_additional" phase="3" state="rryyrrrrrryyrrrr"/>
    <tlsstate time="369.00" id="0" programID="actuated_additional" phase="4" state="rrrrGGggrrrrGGgg"/>
    <tlsstate time="408.00" id="0" programID="actuated_additional" phase="5" state="rrrryyggrrrryygg"/>
    <tlsstate time="412.00" id="0" programID="actuated_additional" phase="6" state="rrrrrrGGrrrrrrGG"/>
    <tlsstate time="418.00" id="0" programID="actuated_additional" phase="7" state="rrrrrryyrrrrrryy"/>
    <tlsstate time="422.00" id="0" programID="actuated_additional" phase="0" state="GGggrrrrGGggrrrr"/>
    <tlsstate time="434.00" id="0" programID="actuated_additional" phase="1" state="yyggrrrryyggrrrr"/>
    <tlsstate time="438.00" id="0" programID="actuated_additional" phase="2" state="rrGGrrrrrrGGrrrr"/>
    <tlsstate time="444.00" id="0" programID="actuated_additional" phase="3" state="rryyrrrrrryyrrrr"/>
    <tlsstate time="448.00" id="0" programID="actuated_additional" phase="4" state="rrrrGGggrrrrGGgg"/>
    <tlsstate time="460.00" id="0" programID="actuated_additional" phase="5" state="rrrryyggrrrryygg"/>
    <tlsstate time="464.00" id="0" programID="actuated_additional" phase="6" state="rrrrrrGGrrrrrrGG"/>
    <tlsstate time="470.00" id="0" programID="actuated_additional" phase="7" state="rrrrrryyrrrrrryy"/>
    <tlsstate time="474.00" id="0" programID="actuated_additional" phase="0" state="GGggrrrrGGggrrrr"/>
    <tlsstate time="479.00" id="0" programID="actuated_additional" phase="1" state="yyggrrrryyggrrrr"/>
    <tlsstate time="483.00" id="0" programID="actuated_additional" phase="2" state="rrGGrrrrrrGGrrrr"/>
    <tlsstate time="489.00" id="0" programID="actuated_additional" phase="3" state="rryyrrrrrryyrrrr"/>
    <tlsstate time="493.00" id="0" programID="actuated_additional" phase="4" state="rrrrGGggrrrrGGgg"/>
    <tlsstate time="498.00" id="0" programID="actuated_additional" phase="5" state="rrrryyggrrrryygg"/>
</tls-switch-states>
