<?xml version="1.0" encoding="UTF-8"?>

<!-- generated on Tue Apr  5 13:48:03 2016 by SUMO Version dev-SVN-r20343
<?xml version="1.0" encoding="UTF-8"?>

<configuration xmlns:xsi="http://www.w3.org/2001/XMLSchema-instance" xsi:noNamespaceSchemaLocation="http://sumo.dlr.de/xsd/sumoConfiguration.xsd">

    <input>
        <net-file value="net.net.xml"/>
        <route-files value="input_routes.rou.xml"/>
        <additional-files value="input_additional.add.xml"/>
    </input>

    <report>
        <xml-validation value="never"/>
        <duration-log.disable value="true"/>
        <no-step-log value="true"/>
    </report>

</configuration>
-->

<instantE1>
    <instantOut id="test" time="25.12" state="enter" vehID="veh0" speed="11.11" length="5.00" type="DEFAULT_VEHTYPE"/>
    <instantOut id="test" time="25.57" state="leave" vehID="veh0" speed="11.11" length="5.00" type="DEFAULT_VEHTYPE" occupancy="0.45"/>
</instantE1>
