<?xml version="1.0" encoding="UTF-8"?>

<!-- generated on Tue Apr  5 13:45:23 2016 by SUMO Version dev-SVN-r20343
<?xml version="1.0" encoding="UTF-8"?>

<configuration xmlns:xsi="http://www.w3.org/2001/XMLSchema-instance" xsi:noNamespaceSchemaLocation="http://sumo.dlr.de/xsd/sumoConfiguration.xsd">

    <input>
        <net-file value="net.net.xml"/>
        <route-files value="input_routes.rou.xml"/>
        <additional-files value="input_additional.add.xml"/>
    </input>

    <output>
        <battery-output value="battery.xml"/>
        <battery-output.precision value="4"/>
    </output>

    <report>
        <xml-validation value="never"/>
        <duration-log.disable value="true"/>
        <no-step-log value="true"/>
    </report>

    <battery>
        <device.battery.probability value="1"/>
    </battery>

</configuration>
-->

<battery-export>
    <timestep time="0.00">
        <vehicle id="vehWithCustDepartEnergy" energyConsumed="0.0000" actualBatteryCapacity="10000.0000" maximumBatteryCapacity="35000.0000" chargingStationId="NULL" energyCharged="0.0000" energyChargedInTransit="0.0000" energyChargedStopped="0.0000" speed="0.6962" acceleration="0.0000" x="1428.2700" y="25.5700" lane="76to16_0" posOnLane="0.0000" timeStopped="0"/>
    </timestep>
    <timestep time="1.00">
        <vehicle id="vehWithCustDepartEnergy" energyConsumed="3.3629" actualBatteryCapacity="9996.6371" maximumBatteryCapacity="35000.0000" chargingStationId="NULL" energyCharged="0.0000" energyChargedInTransit="0.0000" energyChargedStopped="0.0000" speed="2.6573" acceleration="1.9611" x="1427.6684" y="27.1351" lane="76to16_0" posOnLane="1.6768" timeStopped="0"/>
    </timestep>
    <timestep time="2.00">
        <vehicle id="vehWithCustDepartEnergy" energyConsumed="6.2509" actualBatteryCapacity="9990.3863" maximumBatteryCapacity="35000.0000" chargingStationId="NULL" energyCharged="0.0000" energyChargedInTransit="0.0000" energyChargedStopped="0.0000" speed="4.4904" acceleration="1.8331" x="1426.3861" y="30.4708" lane="76to16_0" posOnLane="5.2506" timeStopped="0"/>
    </timestep>
    <timestep time="3.00">
        <vehicle id="vehWithCustDepartEnergy" energyConsumed="12.3468" actualBatteryCapacity="9978.0395" maximumBatteryCapacity="35000.0000" chargingStationId="NULL" energyCharged="0.0000" energyChargedInTransit="0.0000" energyChargedStopped="0.0000" speed="7.0337" acceleration="2.5433" x="1424.3187" y="35.8490" lane="76to16_0" posOnLane="11.0126" timeStopped="0"/>
    </timestep>
    <timestep time="4.00">
        <vehicle id="vehWithCustDepartEnergy" energyConsumed="12.2292" actualBatteryCapacity="9965.8103" maximumBatteryCapacity="35000.0000" chargingStationId="NULL" energyCharged="0.0000" energyChargedInTransit="0.0000" energyChargedStopped="0.0000" speed="8.6674" acceleration="1.6338" x="1421.5019" y="43.1766" lane="76to16_0" posOnLane="18.8632" timeStopped="0"/>
    </timestep>
    <timestep time="5.00">
        <vehicle id="vehWithCustDepartEnergy" energyConsumed="19.0559" actualBatteryCapacity="9946.7544" maximumBatteryCapacity="35000.0000" chargingStationId="NULL" energyCharged="0.0000" energyChargedInTransit="0.0000" energyChargedStopped="0.0000" speed="10.9457" acceleration="2.2782" x="1417.9833" y="52.3300" lane="76to16_0" posOnLane="28.6698" timeStopped="0"/>
    </timestep>
    <timestep time="6.00">
        <vehicle id="vehWithCustDepartEnergy" energyConsumed="20.2929" actualBatteryCapacity="9926.4615" maximumBatteryCapacity="35000.0000" chargingStationId="NULL" energyCharged="0.0000" energyChargedInTransit="0.0000" energyChargedStopped="0.0000" speed="12.8368" acceleration="1.8911" x="1413.7167" y="63.4291" lane="76to16_0" posOnLane="40.5611" timeStopped="0"/>
    </timestep>
    <timestep time="7.00">
        <vehicle id="vehWithCustDepartEnergy" energyConsumed="20.0440" actualBatteryCapacity="9906.4175" maximumBatteryCapacity="35000.0000" chargingStationId="NULL" energyCharged="0.0000" energyChargedInTransit="0.0000" energyChargedStopped="0.0000" speed="14.3393" acceleration="1.5025" x="1408.8413" y="76.1120" lane="76to16_0" posOnLane="54.1491" timeStopped="0"/>
    </timestep>
    <timestep time="8.00">
        <vehicle id="vehWithCustDepartEnergy" energyConsumed="17.1032" actualBatteryCapacity="9889.3143" maximumBatteryCapacity="35000.0000" chargingStationId="NULL" energyCharged="0.0000" energyChargedInTransit="0.0000" energyChargedStopped="0.0000" speed="15.3002" acceleration="0.9608" x="1403.5240" y="89.9446" lane="76to16_0" posOnLane="68.9689" timeStopped="0"/>
    </timestep>
    <timestep time="9.00">
        <vehicle id="vehWithCustDepartEnergy" energyConsumed="0.9064" actualBatteryCapacity="9888.4078" maximumBatteryCapacity="35000.0000" chargingStationId="NULL" energyCharged="0.0000" energyChargedInTransit="0.0000" energyChargedStopped="0.0000" speed="14.4331" acceleration="-0.8671" x="1398.1899" y="103.8209" lane="76to16_0" posOnLane="83.8355" timeStopped="0"/>
    </timestep>
    <timestep time="10.00">
        <vehicle id="vehWithCustDepartEnergy" energyConsumed="10.7665" actualBatteryCapacity="9877.6413" maximumBatteryCapacity="35000.0000" chargingStationId="NULL" energyCharged="0.0000" energyChargedInTransit="0.0000" energyChargedStopped="0.0000" speed="14.7020" acceleration="0.2689" x="1392.9631" y="117.4180" lane="76to16_0" posOnLane="98.4031" timeStopped="0"/>
    </timestep>
    <timestep time="11.00">
        <vehicle id="vehWithBusStop" energyConsumed="0.0000" actualBatteryCapacity="17500.0000" maximumBatteryCapacity="35000.0000" chargingStationId="NULL" energyCharged="0.0000" energyChargedInTransit="0.0000" energyChargedStopped="0.0000" speed="0.8679" acceleration="0.0000" x="1428.2700" y="25.5700" lane="76to16_0" posOnLane="0.0000" timeStopped="0"/>
        <vehicle id="vehWithCustDepartEnergy" energyConsumed="8.6754" actualBatteryCapacity="9868.9659" maximumBatteryCapacity="35000.0000" chargingStationId="NULL" energyCharged="0.0000" energyChargedInTransit="0.0000" energyChargedStopped="0.0000" speed="14.7203" acceleration="0.0183" x="1387.6847" y="131.1492" lane="76to16_0" posOnLane="113.1142" timeStopped="0"/>
    </timestep>
    <timestep time="12.00">
        <vehicle id="vehWithBusStop" energyConsumed="4.1468" actualBatteryCapacity="17495.8532" maximumBatteryCapacity="35000.0000" chargingStationId="NULL" energyCharged="0.0000" energyChargedInTransit="0.0000" energyChargedStopped="0.0000" speed="3.0494" acceleration="2.1814" x="1427.5672" y="27.3982" lane="76to16_0" posOnLane="1.9587" timeStopped="0"/>
        <vehicle id="vehWithCustDepartEnergy" energyConsumed="3.5846" actualBatteryCapacity="9865.3813" maximumBatteryCapacity="35000.0000" chargingStationId="NULL" energyCharged="0.0000" energyChargedInTransit="0.0000" energyChargedStopped="0.0000" speed="14.1697" acceleration="-0.5505" x="1382.5019" y="144.6319" lane="76to16_0" posOnLane="127.5592" timeStopped="0"/>
    </timestep>
    <timestep time="13.00">
        <vehicle id="vehWithBusStop" energyConsumed="9.4101" actualBatteryCapacity="17486.4431" maximumBatteryCapacity="35000.0000" chargingStationId="NULL" energyCharged="0.0000" energyChargedInTransit="0.0000" energyChargedStopped="0.0000" speed="5.5893" acceleration="2.5399" x="1426.0175" y="31.4298" lane="76to16_0" posOnLane="6.2780" timeStopped="0"/>
        <vehicle id="vehWithCustDepartEnergy" energyConsumed="10.3837" actualBatteryCapacity="9854.9976" maximumBatteryCapacity="35000.0000" chargingStationId="NULL" energyCharged="0.0000" energyChargedInTransit="0.0000" energyChargedStopped="0.0000" speed="14.4193" acceleration="0.2496" x="1377.3730" y="157.9742" lane="76to16_0" posOnLane="141.8537" timeStopped="0"/>
    </timestep>
    <timestep time="14.00">
        <vehicle id="vehWithBusStop" energyConsumed="12.8174" actualBatteryCapacity="17473.6258" maximumBatteryCapacity="35000.0000" chargingStationId="NULL" energyCharged="0.0000" energyChargedInTransit="0.0000" energyChargedStopped="0.0000" speed="7.7901" acceleration="2.2008" x="1423.6172" y="37.6739" lane="76to16_0" posOnLane="12.9677" timeStopped="0"/>
        <vehicle id="vehWithCustDepartEnergy" energyConsumed="10.3275" actualBatteryCapacity="9844.6701" maximumBatteryCapacity="35000.0000" chargingStationId="NULL" energyCharged="0.0000" energyChargedInTransit="0.0000" energyChargedStopped="0.0000" speed="14.6411" acceleration="0.2218" x="1372.1596" y="171.5365" lane="76to16_0" posOnLane="156.3839" timeStopped="0"/>
    </timestep>
    <timestep time="15.00">
        <vehicle id="vehWithBusStop" energyConsumed="11.8695" actualBatteryCapacity="17461.7563" maximumBatteryCapacity="35000.0000" chargingStationId="NULL" energyCharged="0.0000" energyChargedInTransit="0.0000" energyChargedStopped="0.0000" speed="9.1694" acceleration="1.3792" x="1420.5747" y="45.5888" lane="76to16_0" posOnLane="21.4475" timeStopped="0"/>
        <vehicle id="vehWithCustDepartEnergy" energyConsumed="7.0541" actualBatteryCapacity="9837.6160" maximumBatteryCapacity="35000.0000" chargingStationId="NULL" energyCharged="0.0000" energyChargedInTransit="0.0000" energyChargedStopped="0.0000" speed="14.4845" acceleration="-0.1567" x="1366.9344" y="185.1292" lane="76to16_0" posOnLane="170.9468" timeStopped="0"/>
    </timestep>
    <timestep time="16.00">
        <vehicle id="vehWithBusStop" energyConsumed="14.2263" actualBatteryCapacity="17447.5300" maximumBatteryCapacity="35000.0000" chargingStationId="NULL" energyCharged="0.0000" energyChargedInTransit="0.0000" energyChargedStopped="0.0000" speed="10.6155" acceleration="1.4461" x="1417.0253" y="54.8223" lane="76to16_0" posOnLane="31.3399" timeStopped="0"/>
        <vehicle id="vehWithCustDepartEnergy" energyConsumed="6.1572" actualBatteryCapacity="9831.4588" maximumBatteryCapacity="35000.0000" chargingStationId="NULL" energyCharged="0.0000" energyChargedInTransit="0.0000" energyChargedStopped="0.0000" speed="14.2364" acceleration="-0.2481" x="1361.7819" y="198.5331" lane="76to16_0" posOnLane="185.3072" timeStopped="0"/>
    </timestep>
    <timestep time="17.00">
        <vehicle id="vehWithBusStop" energyConsumed="19.7386" actualBatteryCapacity="17427.7914" maximumBatteryCapacity="35000.0000" chargingStationId="NULL" energyCharged="0.0000" energyChargedInTransit="0.0000" energyChargedStopped="0.0000" speed="12.5079" acceleration="1.8924" x="1412.8769" y="65.6138" lane="76to16_0" posOnLane="42.9016" timeStopped="0"/>
        <vehicle id="vehWithCustDepartEnergy" energyConsumed="13.2189" actualBatteryCapacity="9818.2399" maximumBatteryCapacity="35000.0000" chargingStationId="NULL" energyCharged="0.0000" energyChargedInTransit="0.0000" energyChargedStopped="0.0000" speed="14.7925" acceleration="0.5560" x="1356.5742" y="212.0806" lane="76to16_0" posOnLane="199.8216" timeStopped="0"/>
    </timestep>
    <timestep time="18.00">
        <vehicle id="vehWithBusStop" energyConsumed="22.6460" actualBatteryCapacity="17405.1454" maximumBatteryCapacity="35000.0000" chargingStationId="NULL" energyCharged="0.0000" energyChargedInTransit="0.0000" energyChargedStopped="0.0000" speed="14.3617" acceleration="1.8538" x="1408.0565" y="78.1536" lane="76to16_0" posOnLane="56.3364" timeStopped="0"/>
        <vehicle id="vehWithCustDepartEnergy" energyConsumed="10.4856" actualBatteryCapacity="9807.7542" maximumBatteryCapacity="35000.0000" chargingStationId="NULL" energyCharged="0.0000" energyChargedInTransit="0.0000" energyChargedStopped="0.0000" speed="15.0003" acceleration="0.2078" x="1351.2294" y="225.9847" lane="76to16_0" posOnLane="214.7180" timeStopped="0"/>
    </timestep>
    <timestep time="19.00">
        <vehicle id="vehWithBusStop" energyConsumed="0.0712" actualBatteryCapacity="17405.0742" maximumBatteryCapacity="35000.0000" chargingStationId="NULL" energyCharged="0.0000" energyChargedInTransit="0.0000" energyChargedStopped="0.0000" speed="13.4100" acceleration="-0.9517" x="1403.0743" y="91.1144" lane="76to16_0" posOnLane="70.2223" timeStopped="0"/>
        <vehicle id="vehWithCustDepartEnergy" energyConsumed="7.9176" actualBatteryCapacity="9799.8367" maximumBatteryCapacity="35000.0000" chargingStationId="NULL" energyCharged="0.0000" energyChargedInTransit="0.0000" energyChargedStopped="0.0000" speed="14.9157" acceleration="-0.0846" x="1345.8625" y="239.9462" lane="76to16_0" posOnLane="229.6760" timeStopped="0"/>
    </timestep>
    <timestep time="20.00">
        <vehicle id="vehWithBusStop" energyConsumed="5.6200" actualBatteryCapacity="17399.4542" maximumBatteryCapacity="35000.0000" chargingStationId="NULL" energyCharged="0.0000" energyChargedInTransit="0.0000" energyChargedStopped="0.0000" speed="13.1603" acceleration="-0.2497" x="1398.3076" y="103.5146" lane="76to16_0" posOnLane="83.5074" timeStopped="0"/>
        <vehicle id="vehWithCustDepartEnergy" energyConsumed="10.3710" actualBatteryCapacity="9789.4657" maximumBatteryCapacity="35000.0000" chargingStationId="NULL" energyCharged="0.0000" energyChargedInTransit="0.0000" energyChargedStopped="0.0000" speed="15.1012" acceleration="0.1855" x="1340.4774" y="253.9549" lane="76to16_0" posOnLane="244.6844" timeStopped="0"/>
    </timestep>
    <timestep time="21.00">
        <vehicle id="vehWithBusStop" energyConsumed="10.4665" actualBatteryCapacity="17388.9877" maximumBatteryCapacity="35000.0000" chargingStationId="NULL" energyCharged="0.0000" energyChargedInTransit="0.0000" energyChargedStopped="0.0000" speed="13.5132" acceleration="0.3530" x="1393.5224" y="115.9629" lane="76to16_0" posOnLane="96.8441" timeStopped="0"/>
        <vehicle id="vehWithCustDepartEnergy" energyConsumed="3.5710" actualBatteryCapacity="9785.8947" maximumBatteryCapacity="35000.0000" chargingStationId="NULL" energyCharged="0.0000" energyChargedInTransit="0.0000" energyChargedStopped="0.0000" speed="14.5356" acceleration="-0.5656" x="1335.1606" y="267.7862" lane="76to16_0" posOnLane="259.5028" timeStopped="0"/>
    </timestep>
    <timestep time="22.00">
        <vehicle id="vehWithBusStop" energyConsumed="13.9873" actualBatteryCapacity="17375.0005" maximumBatteryCapacity="35000.0000" chargingStationId="NULL" energyCharged="0.0000" energyChargedInTransit="0.0000" energyChargedStopped="0.0000" speed="14.2357" acceleration="0.7224" x="1388.5443" y="128.9131" lane="76to16_0" posOnLane="110.7186" timeStopped="0"/>
        <vehicle id="vehWithCustDepartEnergy" energyConsumed="-16.7866" actualBatteryCapacity="9802.6813" maximumBatteryCapacity="35000.0000" chargingStationId="NULL" energyCharged="0.0000" energyChargedInTransit="0.0000" energyChargedStopped="0.0000" speed="10.0356" acceleration="-4.5000" x="1332.3342" y="279.3409" lane=":16_2_0" posOnLane="3.9783" timeStopped="0"/>
    </timestep>
    <timestep time="23.00">
        <vehicle id="vehWithBusStop" energyConsumed="8.2561" actualBatteryCapacity="17366.7444" maximumBatteryCapacity="35000.0000" chargingStationId="NULL" energyCharged="0.0000" energyChargedInTransit="0.0000" energyChargedStopped="0.0000" speed="14.2408" acceleration="0.0052" x="1383.4356" y="142.2029" lane="76to16_0" posOnLane="124.9568" timeStopped="0"/>
        <vehicle id="vehWithCustDepartEnergy" energyConsumed="-1.7019" actualBatteryCapacity="9804.3832" maximumBatteryCapacity="35000.0000" chargingStationId="NULL" energyCharged="0.0000" energyChargedInTransit="0.0000" energyChargedStopped="0.0000" speed="8.6456" acceleration="-1.3899" x="1340.5251" y="283.6585" lane="16to38_0" posOnLane="7.3689" timeStopped="0"/>
    </timestep>
    <timestep time="24.00">
        <vehicle id="vehWithBusStop" energyConsumed="-0.6949" actualBatteryCapacity="17367.4393" maximumBatteryCapacity="35000.0000" chargingStationId="NULL" energyCharged="0.0000" energyChargedInTransit="0.0000" energyChargedStopped="0.0000" speed="13.1499" acceleration="-1.0909" x="1378.5217" y="154.9860" lane="76to16_0" posOnLane="138.6522" timeStopped="0"/>
        <vehicle id="vehWithCustDepartEnergy" energyConsumed="5.8995" actualBatteryCapacity="9798.4837" maximumBatteryCapacity="35000.0000" chargingStationId="NULL" energyCharged="0.0000" energyChargedInTransit="0.0000" energyChargedStopped="0.0000" speed="8.8371" acceleration="0.1915" x="1348.4672" y="287.3104" lane="16to38_0" posOnLane="16.1103" timeStopped="0"/>
    </timestep>
    <timestep time="25.00">
        <vehicle id="vehWithBusStop" energyConsumed="15.7057" actualBatteryCapacity="17351.7336" maximumBatteryCapacity="35000.0000" chargingStationId="NULL" energyCharged="0.0000" energyChargedInTransit="0.0000" energyChargedStopped="0.0000" speed="14.1138" acceleration="0.9638" x="1373.6306" y="167.7098" lane="76to16_0" posOnLane="152.2841" timeStopped="0"/>
        <vehicle id="vehWithCustDepartEnergy" energyConsumed="5.6484" actualBatteryCapacity="9792.8353" maximumBatteryCapacity="35000.0000" chargingStationId="NULL" energyCharged="0.0000" energyChargedInTransit="0.0000" energyChargedStopped="0.0000" speed="8.9621" acceleration="0.1250" x="1356.5530" y="291.0284" lane="16to38_0" posOnLane="25.0099" timeStopped="0"/>
    </timestep>
    <timestep time="26.00">
        <vehicle id="vehWithBusStop" energyConsumed="4.2197" actualBatteryCapacity="17347.5139" maximumBatteryCapacity="35000.0000" chargingStationId="NULL" energyCharged="0.0000" energyChargedInTransit="0.0000" energyChargedStopped="0.0000" speed="13.6608" acceleration="-0.4530" x="1368.6479" y="180.6719" lane="76to16_0" posOnLane="166.1714" timeStopped="0"/>
        <vehicle id="vehWithCustDepartEnergy" energyConsumed="4.4614" actualBatteryCapacity="9788.3739" maximumBatteryCapacity="35000.0000" chargingStationId="NULL" energyCharged="0.0000" energyChargedInTransit="0.0000" energyChargedStopped="0.0000" speed="8.8666" acceleration="-0.0955" x="1364.6522" y="294.7525" lane="16to38_0" posOnLane="33.9242" timeStopped="0"/>
    </timestep>
    <timestep time="27.00">
        <vehicle id="vehWithBusStop" energyConsumed="5.2204" actualBatteryCapacity="17342.2936" maximumBatteryCapacity="35000.0000" chargingStationId="NULL" energyCharged="0.0000" energyChargedInTransit="0.0000" energyChargedStopped="0.0000" speed="13.3486" acceleration="-0.3121" x="1363.8024" y="193.2770" lane="76to16_0" posOnLane="179.6760" timeStopped="0"/>
        <vehicle id="vehWithCustDepartEnergy" energyConsumed="6.0908" actualBatteryCapacity="9782.2831" maximumBatteryCapacity="35000.0000" chargingStationId="NULL" energyCharged="0.0000" energyChargedInTransit="0.0000" energyChargedStopped="0.0000" speed="9.0647" acceleration="0.1981" x="1372.7980" y="298.4980" lane="16to38_0" posOnLane="42.8898" timeStopped="0"/>
    </timestep>
    <timestep time="28.00">
        <vehicle id="vehWithBusStop" energyConsumed="9.2131" actualBatteryCapacity="17333.0805" maximumBatteryCapacity="35000.0000" chargingStationId="NULL" energyCharged="0.0000" energyChargedInTransit="0.0000" energyChargedStopped="0.0000" speed="13.5353" acceleration="0.1866" x="1358.9794" y="205.8236" lane="76to16_0" posOnLane="193.1180" timeStopped="0"/>
        <vehicle id="vehWithCustDepartEnergy" energyConsumed="0.5311" actualBatteryCapacity="9781.7520" maximumBatteryCapacity="35000.0000" chargingStationId="NULL" energyCharged="0.0000" energyChargedInTransit="0.0000" energyChargedStopped="0.0000" speed="8.2502" acceleration="-0.8145" x="1380.6638" y="302.1148" lane="16to38_0" posOnLane="51.5472" timeStopped="0"/>
    </timestep>
    <timestep time="29.00">
        <vehicle id="vehWithBusStop" energyConsumed="8.5575" actualBatteryCapacity="17324.5230" maximumBatteryCapacity="35000.0000" chargingStationId="NULL" energyCharged="0.0000" energyChargedInTransit="0.0000" energyChargedStopped="0.0000" speed="13.6287" acceleration="0.0935" x="1354.1062" y="218.5008" lane="76to16_0" posOnLane="206.7000" timeStopped="0"/>
        <vehicle id="vehWithCustDepartEnergy" energyConsumed="4.7617" actualBatteryCapacity="9776.9903" maximumBatteryCapacity="35000.0000" chargingStationId="NULL" energyCharged="0.0000" energyChargedInTransit="0.0000" energyChargedStopped="0.0000" speed="8.2813" acceleration="0.0311" x="1388.1737" y="305.5680" lane="16to38_0" posOnLane="59.8130" timeStopped="0"/>
    </timestep>
    <timestep time="30.00">
        <vehicle id="vehWithBusStop" energyConsumed="4.1454" actualBatteryCapacity="17320.3776" maximumBatteryCapacity="35000.0000" chargingStationId="NULL" energyCharged="0.0000" energyChargedInTransit="0.0000" energyChargedStopped="0.0000" speed="13.1883" acceleration="-0.4405" x="1349.2952" y="231.0161" lane="76to16_0" posOnLane="220.1085" timeStopped="0"/>
        <vehicle id="vehWithCustDepartEnergy" energyConsumed="2.7828" actualBatteryCapacity="9774.2074" maximumBatteryCapacity="35000.0000" chargingStationId="NULL" energyCharged="0.0000" energyChargedInTransit="0.0000" energyChargedStopped="0.0000" speed="7.9325" acceleration="-0.3488" x="1395.5393" y="308.9548" lane="16to38_0" posOnLane="67.9199" timeStopped="0"/>
    </timestep>
    <timestep time="31.00">
        <vehicle id="vehWithBusStop" energyConsumed="14.4530" actualBatteryCapacity="17305.9246" maximumBatteryCapacity="35000.0000" chargingStationId="NULL" energyCharged="0.0000" energyChargedInTransit="0.0000" energyChargedStopped="0.0000" speed="14.0037" acceleration="0.8154" x="1344.4170" y="243.7064" lane="76to16_0" posOnLane="233.7045" timeStopped="0"/>
        <vehicle id="vehWithCustDepartEnergy" energyConsumed="7.6471" actualBatteryCapacity="9766.5603" maximumBatteryCapacity="35000.0000" chargingStationId="NULL" energyCharged="0.0000" energyChargedInTransit="0.0000" energyChargedStopped="0.0000" speed="8.5400" acceleration="0.6076" x="1403.0224" y="312.3957" lane="16to38_0" posOnLane="76.1561" timeStopped="0"/>
    </timestep>
    <timestep time="32.00">
        <vehicle id="vehWithBusStop" energyConsumed="5.0180" actualBatteryCapacity="17300.9066" maximumBatteryCapacity="35000.0000" chargingStationId="NULL" energyCharged="0.0000" energyChargedInTransit="0.0000" energyChargedStopped="0.0000" speed="13.6498" acceleration="-0.3540" x="1339.4560" y="256.6121" lane="76to16_0" posOnLane="247.5313" timeStopped="0"/>
        <vehicle id="vehWithCustDepartEnergy" energyConsumed="7.1327" actualBatteryCapacity="9759.4276" maximumBatteryCapacity="35000.0000" chargingStationId="NULL" energyCharged="0.0000" energyChargedInTransit="0.0000" energyChargedStopped="0.0000" speed="8.9615" acceleration="0.4214" x="1410.9730" y="316.0515" lane="16to38_0" posOnLane="84.9069" timeStopped="0"/>
    </timestep>
    <timestep time="33.00">
        <vehicle id="vehWithBusStop" energyConsumed="3.7682" actualBatteryCapacity="17297.1384" maximumBatteryCapacity="35000.0000" chargingStationId="NULL" energyCharged="0.0000" energyChargedInTransit="0.0000" energyChargedStopped="0.0000" speed="13.1625" acceleration="-0.4873" x="1334.6459" y="269.1252" lane="76to16_0" posOnLane="260.9374" timeStopped="0"/>
        <vehicle id="vehWithCustDepartEnergy" energyConsumed="4.8955" actualBatteryCapacity="9754.5321" maximumBatteryCapacity="35000.0000" chargingStationId="NULL" energyCharged="0.0000" energyChargedInTransit="0.0000" energyChargedStopped="0.0000" speed="8.9420" acceleration="-0.0194" x="1419.1062" y="319.7912" lane="16to38_0" posOnLane="93.8586" timeStopped="0"/>
    </timestep>
    <timestep time="34.00">
        <vehicle id="vehWithBusStop" energyConsumed="10.9260" actualBatteryCapacity="17286.2124" maximumBatteryCapacity="35000.0000" chargingStationId="NULL" energyCharged="0.0000" energyChargedInTransit="0.0000" energyChargedStopped="0.0000" speed="13.5697" acceleration="0.4072" x="1329.8196" y="281.6124" lane=":16_3_0" posOnLane="6.4935" timeStopped="0"/>
        <vehicle id="vehWithCustDepartEnergy" energyConsumed="5.2314" actualBatteryCapacity="9749.3008" maximumBatteryCapacity="35000.0000" chargingStationId="NULL" energyCharged="0.0000" energyChargedInTransit="0.0000" energyChargedStopped="0.0000" speed="8.9830" acceleration="0.0410" x="1427.2492" y="323.5355" lane="16to38_0" posOnLane="102.8212" timeStopped="0"/>
    </timestep>
    <timestep time="35.00">
        <vehicle id="vehWithBusStop" energyConsumed="14.7189" actualBatteryCapacity="17271.4934" maximumBatteryCapacity="35000.0000" chargingStationId="NULL" energyCharged="0.0000" energyChargedInTransit="0.0000" energyChargedStopped="0.0000" speed="14.3677" acceleration="0.7979" x="1324.5745" y="294.5734" lane="16to13_0" posOnLane="10.1121" timeStopped="0"/>
        <vehicle id="vehWithCustDepartEnergy" energyConsumed="4.0767" actualBatteryCapacity="9745.2241" maximumBatteryCapacity="35000.0000" chargingStationId="NULL" energyCharged="0.0000" energyChargedInTransit="0.0000" energyChargedStopped="0.0000" speed="8.8179" acceleration="-0.1651" x="1435.3358" y="327.2538" lane="16to38_0" posOnLane="111.7216" timeStopped="0"/>
    </timestep>
    <timestep time="36.00">
        <vehicle id="vehWithBusStop" energyConsumed="2.4107" actualBatteryCapacity="17269.0827" maximumBatteryCapacity="35000.0000" chargingStationId="NULL" energyCharged="0.0000" energyChargedInTransit="0.0000" energyChargedStopped="0.0000" speed="13.6930" acceleration="-0.6746" x="1319.3084" y="307.5787" lane="16to13_0" posOnLane="24.1425" timeStopped="0"/>
        <vehicle id="vehWithCustDepartEnergy" energyConsumed="0.3520" actualBatteryCapacity="9744.8721" maximumBatteryCapacity="35000.0000" chargingStationId="NULL" energyCharged="0.0000" energyChargedInTransit="0.0000" energyChargedStopped="0.0000" speed="7.9739" acceleration="-0.8440" x="1442.9639" y="330.7614" lane="16to38_0" posOnLane="120.1175" timeStopped="0"/>
    </timestep>
    <timestep time="37.00">
        <vehicle id="vehWithBusStop" energyConsumed="13.2968" actualBatteryCapacity="17255.7859" maximumBatteryCapacity="35000.0000" chargingStationId="NULL" energyCharged="0.0000" energyChargedInTransit="0.0000" energyChargedStopped="0.0000" speed="14.3168" acceleration="0.6237" x="1314.0518" y="320.5604" lane="16to13_0" posOnLane="38.1474" timeStopped="0"/>
        <vehicle id="vehWithCustDepartEnergy" energyConsumed="9.7484" actualBatteryCapacity="9735.1237" maximumBatteryCapacity="35000.0000" chargingStationId="NULL" energyCharged="0.0000" energyChargedInTransit="0.0000" energyChargedStopped="0.0000" speed="8.9477" acceleration="0.9739" x="1450.6511" y="334.2960" lane="16to38_0" posOnLane="128.5783" timeStopped="0"/>
    </timestep>
    <timestep time="38.00">
        <vehicle id="vehWithBusStop" energyConsumed="-1.2838" actualBatteryCapacity="17257.0697" maximumBatteryCapacity="35000.0000" chargingStationId="NULL" energyCharged="0.0000" energyChargedInTransit="0.0000" energyChargedStopped="0.0000" speed="13.1139" acceleration="-1.2029" x="1308.9039" y="333.2737" lane="16to13_0" posOnLane="51.8627" timeStopped="0"/>
        <vehicle id="vehWithCustDepartEnergy" energyConsumed="4.0018" actualBatteryCapacity="9731.1219" maximumBatteryCapacity="35000.0000" chargingStationId="NULL" energyCharged="0.0000" energyChargedInTransit="0.0000" energyChargedStopped="0.0000" speed="8.7724" acceleration="-0.1753" x="1458.7010" y="337.9975" lane="16to38_0" posOnLane="137.4383" timeStopped="0"/>
    </timestep>
    <timestep time="39.00">
        <vehicle id="vehWithBusStop" energyConsumed="14.6639" actualBatteryCapacity="17242.4058" maximumBatteryCapacity="35000.0000" chargingStationId="NULL" energyCharged="0.0000" energyChargedInTransit="0.0000" energyChargedStopped="0.0000" speed="13.9631" acceleration="0.8492" x="1303.8438" y="345.8049" lane=":13_3_0" posOnLane="2.7112" timeStopped="0"/>
        <vehicle id="vehWithCustDepartEnergy" energyConsumed="6.5924" actualBatteryCapacity="9724.5295" maximumBatteryCapacity="35000.0000" chargingStationId="NULL" energyCharged="0.0000" energyChargedInTransit="0.0000" energyChargedStopped="0.0000" speed="9.0686" acceleration="0.2962" x="1466.8057" y="341.7242" lane="16to38_0" posOnLane="146.3588" timeStopped="0"/>
    </timestep>
    <timestep time="40.00">
        <vehicle id="vehWithBusStop" energyConsumed="5.4880" actualBatteryCapacity="17236.9178" maximumBatteryCapacity="35000.0000" chargingStationId="NULL" energyCharged="0.0000" energyChargedInTransit="0.0000" energyChargedStopped="0.0000" speed="13.6666" acceleration="-0.2966" x="1299.3052" y="358.7775" lane="13to1_0" posOnLane="6.1561" timeStopped="0"/>
        <vehicle id="vehWithCustDepartEnergy" energyConsumed="4.1617" actualBatteryCapacity="9720.3678" maximumBatteryCapacity="35000.0000" chargingStationId="NULL" energyCharged="0.0000" energyChargedInTransit="0.0000" energyChargedStopped="0.0000" speed="8.9111" acceleration="-0.1575" x="1474.9735" y="345.4798" lane="16to38_0" posOnLane="155.3486" timeStopped="0"/>
    </timestep>
    <timestep time="41.00">
        <vehicle id="vehWithBusStop" energyConsumed="12.1982" actualBatteryCapacity="17224.7196" maximumBatteryCapacity="35000.0000" chargingStationId="NULL" energyCharged="0.0000" energyChargedInTransit="0.0000" energyChargedStopped="0.0000" speed="14.1690" acceleration="0.5024" x="1294.8180" y="371.9525" lane="13to1_0" posOnLane="20.0738" timeStopped="0"/>
        <vehicle id="vehWithCustDepartEnergy" energyConsumed="6.1822" actualBatteryCapacity="9714.1857" maximumBatteryCapacity="35000.0000" chargingStationId="NULL" energyCharged="0.0000" energyChargedInTransit="0.0000" energyChargedStopped="0.0000" speed="9.1195" acceleration="0.2084" x="1483.1645" y="349.2461" lane="16to38_0" posOnLane="164.3639" timeStopped="0"/>
    </timestep>
    <timestep time="42.00">
        <vehicle id="vehWithBusStop" energyConsumed="9.3248" actualBatteryCapacity="17215.3949" maximumBatteryCapacity="35000.0000" chargingStationId="NULL" energyCharged="0.0000" energyChargedInTransit="0.0000" energyChargedStopped="0.0000" speed="14.2998" acceleration="0.1309" x="1290.2286" y="385.4272" lane="13to1_0" posOnLane="34.3082" timeStopped="0"/>