<?xml version="1.0" encoding="UTF-8"?>


<net version="0.27" xmlns:xsi="http://www.w3.org/2001/XMLSchema-instance" xsi:noNamespaceSchemaLocation="http://sumo.dlr.de/xsd/net_file.xsd">

    <location netOffset="0.00,0.00" convBoundary="-2.95,42.95,87.95,42.95" origBoundary="10000000000.00,10000000000.00,-10000000000.00,-10000000000.00" projParameter="!"/>

    <edge id="gneE0" from="gneJ0" to="gneJ1" priority="1">
        <lane id="gneE0_0" index="0" speed="13.89" length="90.91" shape="-2.95,41.30 87.95,41.30"/>
    </edge>

    <junction id="gneJ0" type="unregulated" x="-2.95" y="42.95" incLanes="" intLanes="" shape="-2.95,42.90 -2.95,39.70"/>
    <junction id="gneJ1" type="unregulated" x="87.95" y="42.95" incLanes="gneE0_0" intLanes="" shape="87.95,39.70 87.95,42.90"/>

</net>
