<?xml version="1.0" encoding="UTF-8"?>
<routes xmlns:xsi="http://www.w3.org/2001/XMLSchema-instance" xsi:noNamespaceSchemaLocation="http://svn.code.sf.net/p/sumo/code/branches/parking/sumo/data/xsd/routes_file.xsd">
	
	<vType id="DEFAULT_VEHTYPE">
	    <param key="parking.distance.weight" value="1"/>
    </vType>
	
    <route id="route1" edges="a b c">
		<stop index="0" parkingArea="ParkAreaA" duration="200" parking="true"/>
		<stop index="1" parkingArea="ParkAreaB" duration="200" parking="true"/>
    </route>

    <route id="route2" edges="a b c">
		<stop index="0" parkingArea="ParkAreaA" duration="200" parking="true"/>
    </route>

    <route id="route3" edges="a b c"/>
	
	
    <flow id="flow1" begin="0" end="35" period="5" route="route1"/>
	
    <flow id="flow3" begin="40" end="75" period="5" route="route3">
		<stop index="0" parkingArea="ParkAreaA" duration="200" parking="true"/>
		<stop index="1" parkingArea="ParkAreaB" duration="200" parking="true"/>
    </flow>
	
</routes>
