<?xml version="1.0" encoding="UTF-8"?>

<!-- generated on Tue 22 Mar 2016 12:04:37 PM CET by Netedit Version dev-SVN-r20272
<?xml version="1.0" encoding="UTF-8"?>

<configuration xmlns:xsi="http://www.w3.org/2001/XMLSchema-instance" xsi:noNamespaceSchemaLocation="http://sumo.dlr.de/xsd/netedit.exeConfiguration.xsd">

    <input>
        <sumo-net-file value="/scr1/sharps/tests/sumo/opposite_direction_driving/net2.net.xml"/>
    </input>

    <output>
        <output-file value="/scr1/sharps/tests/sumo/opposite_direction_driving/net2.net.xml"/>
    </output>

    <processing>
        <no-internal-links value="true"/>
        <no-turnarounds value="true"/>
        <offset.disable-normalization value="true"/>
        <lefthand value="false"/>
        <junctions.corner-detail value="0"/>
    </processing>

</configuration>
-->

<net version="0.25" xmlns:xsi="http://www.w3.org/2001/XMLSchema-instance" xsi:noNamespaceSchemaLocation="http://sumo.dlr.de/xsd/net_file.xsd">

    <location netOffset="0.00,0.00" convBoundary="0.00,0.00,200.00,0.00" origBoundary="-10000000000.00,-10000000000.00,10000000000.00,10000000000.00" projParameter="!"/>

    <edge id="-VODUGES_beg" from="C" to="W" priority="1">
        <lane id="-VODUGES_beg_0" index="0" speed="13.89" length="50.00" shape="50.00,1.65 0.00,1.65">
            <neigh lane="VODUGES_beg_0"/>
        </lane>
    </edge>
    <edge id="-VODUGES_end" from="E" to="C" priority="1">
        <lane id="-VODUGES_end_0" index="0" speed="13.89" length="150.00" shape="200.00,1.65 50.00,1.65">
            <neigh lane="VODUGES_end_0"/>
        </lane>
    </edge>
    <edge id="VODUGES_beg" from="W" to="C" priority="1">
        <lane id="VODUGES_beg_0" index="0" speed="13.89" length="50.00" shape="0.00,-1.65 50.00,-1.65">
            <neigh lane="-VODUGES_beg_0"/>
        </lane>
    </edge>
    <edge id="VODUGES_end" from="C" to="E" priority="1">
        <lane id="VODUGES_end_0" index="0" speed="13.89" length="150.00" shape="50.00,-1.65 200.00,-1.65">
            <neigh lane="-VODUGES_end_0"/>
        </lane>
    </edge>

    <junction id="C" type="priority" x="50.00" y="0.00" incLanes="-VODUGES_end_0 VODUGES_beg_0" intLanes="" shape="50.00,3.25 50.00,-3.25 50.00,3.25">
        <request index="0" response="00" foes="00"/>
        <request index="1" response="00" foes="00"/>
    </junction>
    <junction id="E" type="dead_end" x="200.00" y="0.00" incLanes="VODUGES_end_0" intLanes="" shape="200.00,0.05 200.00,3.25 200.00,-3.25 200.00,-0.05"/>
    <junction id="W" type="dead_end" x="0.00" y="0.00" incLanes="-VODUGES_beg_0" intLanes="" shape="0.00,-0.05 0.00,-3.25 0.00,3.25 0.00,0.05"/>

    <connection from="-VODUGES_end" to="-VODUGES_beg" fromLane="0" toLane="0" dir="s" state="M"/>
    <connection from="VODUGES_beg" to="VODUGES_end" fromLane="0" toLane="0" dir="s" state="M"/>

</net>
