<?xml version="1.0" encoding="UTF-8"?>

<!-- generated on Tue Apr  5 13:44:46 2016 by SUMO Version dev-SVN-r20343
<?xml version="1.0" encoding="UTF-8"?>

<configuration xmlns:xsi="http://www.w3.org/2001/XMLSchema-instance" xsi:noNamespaceSchemaLocation="http://sumo.dlr.de/xsd/sumoConfiguration.xsd">

    <input>
        <net-file value="net.net.xml"/>
        <route-files value="input_routes.rou.xml"/>
        <additional-files value="input_additional.add.xml"/>
    </input>

    <time>
        <begin value="0"/>
        <end value="1000"/>
    </time>

    <report>
        <xml-validation value="never"/>
        <duration-log.disable value="true"/>
        <no-step-log value="true"/>
    </report>

</configuration>
-->

<linkData xmlns:xsi="http://www.w3.org/2001/XMLSchema-instance" xsi:noNamespaceSchemaLocation="http://sumo.dlr.de/xsd/amitran/linkdata.xsd">
    <timeSlice startTime="0" duration="300000">
        <link id="32" amount="31" averageSpeed="974">
            <actorConfig id="0" amount="31" averageSpeed="974"/>
        </link>
        <link id="33" amount="12" averageSpeed="1037">
            <actorConfig id="0" amount="12" averageSpeed="1037"/>
        </link>
        <link id="34" amount="21" averageSpeed="551">
            <actorConfig id="0" amount="21" averageSpeed="551"/>
        </link>
        <link id="35" amount="29" averageSpeed="980">
            <actorConfig id="0" amount="29" averageSpeed="980"/>
        </link>
        <link id="36" amount="19" averageSpeed="1037">
            <actorConfig id="0" amount="19" averageSpeed="1037"/>
        </link>
        <link id="37" amount="25" averageSpeed="621">
            <actorConfig id="0" amount="25" averageSpeed="621"/>
        </link>
        <link id="38" amount="40" averageSpeed="956">
            <actorConfig id="0" amount="40" averageSpeed="956"/>
        </link>
        <link id="39" amount="6" averageSpeed="1041">
            <actorConfig id="0" amount="6" averageSpeed="1041"/>
        </link>
        <link id="40" amount="35" averageSpeed="615">
            <actorConfig id="0" amount="35" averageSpeed="615"/>
        </link>
        <link id="41" amount="13" averageSpeed="1042">
            <actorConfig id="0" amount="13" averageSpeed="1042"/>
        </link>
        <link id="42" amount="26" averageSpeed="1041">
            <actorConfig id="0" amount="26" averageSpeed="1041"/>
        </link>
        <link id="43" amount="11" averageSpeed="713">
            <actorConfig id="0" amount="11" averageSpeed="713"/>
        </link>
    </timeSlice>
    <timeSlice startTime="300000" duration="300000">
        <link id="32" amount="68" averageSpeed="995">
            <actorConfig id="0" amount="68" averageSpeed="1004"/>
        </link>
        <link id="33" amount="51" averageSpeed="1039">
            <actorConfig id="0" amount="51" averageSpeed="1040"/>
        </link>
        <link id="34" amount="71" averageSpeed="334">
            <actorConfig id="0" amount="71" averageSpeed="297"/>
        </link>
        <link id="35" amount="102" averageSpeed="1007">
            <actorConfig id="0" amount="102" averageSpeed="1015"/>
        </link>
        <link id="36" amount="76" averageSpeed="1037">
            <actorConfig id="0" amount="76" averageSpeed="1036"/>
        </link>
        <link id="37" amount="70" averageSpeed="457">
            <actorConfig id="0" amount="70" averageSpeed="420"/>
        </link>
        <link id="38" amount="94" averageSpeed="976">
            <actorConfig id="0" amount="94" averageSpeed="984"/>
        </link>
        <link id="39" amount="40" averageSpeed="1036">
            <actorConfig id="0" amount="40" averageSpeed="1035"/>
        </link>
        <link id="40" amount="66" averageSpeed="528">
            <actorConfig id="0" amount="66" averageSpeed="490"/>
        </link>
        <link id="41" amount="77" averageSpeed="1041">
            <actorConfig id="0" amount="77" averageSpeed="1041"/>
        </link>
        <link id="42" amount="75" averageSpeed="1039">
            <actorConfig id="0" amount="75" averageSpeed="1038"/>
        </link>
        <link id="43" amount="70" averageSpeed="471">
            <actorConfig id="0" amount="70" averageSpeed="446"/>
        </link>
    </timeSlice>
    <timeSlice startTime="600000" duration="300000">
        <link id="32" amount="105" averageSpeed="1006">
            <actorConfig id="0" amount="105" averageSpeed="1016"/>
        </link>
        <link id="33" amount="74" averageSpeed="1038">
            <actorConfig id="0" amount="74" averageSpeed="1037"/>
        </link>
        <link id="34" amount="89" averageSpeed="212">
            <actorConfig id="0" amount="89" averageSpeed="140"/>
        </link>
        <link id="35" amount="104" averageSpeed="1011">
            <actorConfig id="0" amount="104" averageSpeed="1016"/>
        </link>
        <link id="36" amount="69" averageSpeed="1038">
            <actorConfig id="0" amount="69" averageSpeed="1039"/>
        </link>
        <link id="37" amount="77" averageSpeed="417">
            <actorConfig id="0" amount="77" averageSpeed="375"/>
        </link>
        <link id="38" amount="112" averageSpeed="991">
            <actorConfig id="0" amount="112" averageSpeed="1008"/>
        </link>
        <link id="39" amount="74" averageSpeed="1037">
            <actorConfig id="0" amount="74" averageSpeed="1037"/>
        </link>
        <link id="40" amount="57" averageSpeed="474">
            <actorConfig id="0" amount="57" averageSpeed="403"/>
        </link>
        <link id="41" amount="67" averageSpeed="1042">
            <actorConfig id="0" amount="67" averageSpeed="1043"/>
        </link>
        <link id="42" amount="66" averageSpeed="1039">
            <actorConfig id="0" amount="66" averageSpeed="1039"/>
        </link>
        <link id="43" amount="76" averageSpeed="455">
            <actorConfig id="0" amount="76" averageSpeed="438"/>
        </link>
    </timeSlice>
    <timeSlice startTime="900000" duration="100000">
        <link id="32" amount="38" averageSpeed="932">
            <actorConfig id="0" amount="38" averageSpeed="648"/>
        </link>
        <link id="33" amount="25" averageSpeed="1038">
            <actorConfig id="0" amount="25" averageSpeed="1036"/>
        </link>
        <link id="34" amount="19" averageSpeed="193">
            <actorConfig id="0" amount="19" averageSpeed="114"/>
        </link>
        <link id="35" amount="33" averageSpeed="1012">
            <actorConfig id="0" amount="33" averageSpeed="1017"/>
        </link>
        <link id="36" amount="26" averageSpeed="1038">
            <actorConfig id="0" amount="26" averageSpeed="1041"/>
        </link>
        <link id="37" amount="22" averageSpeed="404">
            <actorConfig id="0" amount="22" averageSpeed="326"/>
        </link>
        <link id="38" amount="36" averageSpeed="992">
            <actorConfig id="0" amount="36" averageSpeed="1005"/>
        </link>
        <link id="39" amount="20" averageSpeed="1036">
            <actorConfig id="0" amount="20" averageSpeed="1036"/>
        </link>
        <link id="40" amount="22" averageSpeed="475">
            <actorConfig id="0" amount="22" averageSpeed="482"/>
        </link>
        <link id="41" amount="17" averageSpeed="1042">
            <actorConfig id="0" amount="17" averageSpeed="1046"/>
        </link>
        <link id="42" amount="21" averageSpeed="1039">
            <actorConfig id="0" amount="21" averageSpeed="1039"/>
        </link>
        <link id="43" amount="15" averageSpeed="453">
            <actorConfig id="0" amount="15" averageSpeed="435"/>
        </link>
    </timeSlice>
</linkData>
