<?xml version="1.0" encoding="UTF-8"?>

<!-- generated on Wed Jun  1 10:58:57 2016 by SUMO Version dev-SVN-r20832
<?xml version="1.0" encoding="UTF-8"?>

<configuration xmlns:xsi="http://www.w3.org/2001/XMLSchema-instance" xsi:noNamespaceSchemaLocation="http://sumo.dlr.de/xsd/sumoConfiguration.xsd">

    <input>
        <net-file value="net.net.xml"/>
        <route-files value="input_routes.rou.xml"/>
        <additional-files value="input_additional.add.xml"/>
    </input>

    <time>
        <begin value="0"/>
        <end value="1000"/>
    </time>

    <report>
        <xml-validation value="never"/>
        <duration-log.disable value="true"/>
        <no-step-log value="true"/>
    </report>

</configuration>
-->

<linkData xmlns:xsi="http://www.w3.org/2001/XMLSchema-instance" xsi:noNamespaceSchemaLocation="http://sumo.dlr.de/xsd/amitran/linkdata.xsd">
    <timeSlice startTime="0" duration="300000">
        <link id="32" amount="31" averageSpeed="974">
            <actorConfig id="0" amount="31" averageSpeed="974"/>
        </link>
        <link id="33" amount="12" averageSpeed="1037">
            <actorConfig id="0" amount="12" averageSpeed="1037"/>
        </link>
        <link id="34" amount="21" averageSpeed="591">
            <actorConfig id="0" amount="21" averageSpeed="591"/>
        </link>
        <link id="35" amount="29" averageSpeed="980">
            <actorConfig id="0" amount="29" averageSpeed="980"/>
        </link>
        <link id="36" amount="19" averageSpeed="1039">
            <actorConfig id="0" amount="19" averageSpeed="1039"/>
        </link>
        <link id="37" amount="25" averageSpeed="661">
            <actorConfig id="0" amount="25" averageSpeed="661"/>
        </link>
        <link id="38" amount="40" averageSpeed="954">
            <actorConfig id="0" amount="40" averageSpeed="954"/>
        </link>
        <link id="39" amount="6" averageSpeed="1039">
            <actorConfig id="0" amount="6" averageSpeed="1039"/>
        </link>
        <link id="40" amount="35" averageSpeed="641">
            <actorConfig id="0" amount="35" averageSpeed="641"/>
        </link>
        <link id="41" amount="13" averageSpeed="1043">
            <actorConfig id="0" amount="13" averageSpeed="1043"/>
        </link>
        <link id="42" amount="26" averageSpeed="1040">
            <actorConfig id="0" amount="26" averageSpeed="1040"/>
        </link>
        <link id="43" amount="11" averageSpeed="752">
            <actorConfig id="0" amount="11" averageSpeed="752"/>
        </link>
    </timeSlice>
    <timeSlice startTime="300000" duration="300000">
        <link id="32" amount="69" averageSpeed="996">
            <actorConfig id="0" amount="69" averageSpeed="1005"/>
        </link>
        <link id="33" amount="52" averageSpeed="1038">
            <actorConfig id="0" amount="52" averageSpeed="1038"/>
        </link>
        <link id="34" amount="71" averageSpeed="381">
            <actorConfig id="0" amount="71" averageSpeed="345"/>
        </link>
        <link id="35" amount="100" averageSpeed="1005">
            <actorConfig id="0" amount="100" averageSpeed="1012"/>
        </link>
        <link id="36" amount="77" averageSpeed="1037">
            <actorConfig id="0" amount="77" averageSpeed="1036"/>
        </link>
        <link id="37" amount="69" averageSpeed="519">
            <actorConfig id="0" amount="69" averageSpeed="485"/>
        </link>
        <link id="38" amount="93" averageSpeed="976">
            <actorConfig id="0" amount="93" averageSpeed="985"/>
        </link>
        <link id="39" amount="40" averageSpeed="1038">
            <actorConfig id="0" amount="40" averageSpeed="1038"/>
        </link>
        <link id="40" amount="65" averageSpeed="555">
            <actorConfig id="0" amount="65" averageSpeed="518"/>
        </link>
        <link id="41" amount="76" averageSpeed="1042">
            <actorConfig id="0" amount="76" averageSpeed="1041"/>
        </link>
        <link id="42" amount="74" averageSpeed="1040">
            <actorConfig id="0" amount="74" averageSpeed="1040"/>
        </link>
        <link id="43" amount="70" averageSpeed="493">
            <actorConfig id="0" amount="70" averageSpeed="467"/>
        </link>
    </timeSlice>
    <timeSlice startTime="600000" duration="300000">
        <link id="32" amount="103" averageSpeed="1007">
            <actorConfig id="0" amount="103" averageSpeed="1017"/>
        </link>
        <link id="33" amount="73" averageSpeed="1037">
            <actorConfig id="0" amount="73" averageSpeed="1036"/>
        </link>
        <link id="34" amount="88" averageSpeed="272">
            <actorConfig id="0" amount="88" averageSpeed="206"/>
        </link>
        <link id="35" amount="104" averageSpeed="1010">
            <actorConfig id="0" amount="104" averageSpeed="1015"/>
        </link>
        <link id="36" amount="69" averageSpeed="1039">
            <actorConfig id="0" amount="69" averageSpeed="1040"/>
        </link>
        <link id="37" amount="77" averageSpeed="494">
            <actorConfig id="0" amount="77" averageSpeed="468"/>
        </link>
        <link id="38" amount="115" averageSpeed="990">
            <actorConfig id="0" amount="115" averageSpeed="1006"/>
        </link>
        <link id="39" amount="72" averageSpeed="1038">
            <actorConfig id="0" amount="72" averageSpeed="1038"/>
        </link>
        <link id="40" amount="58" averageSpeed="509">
            <actorConfig id="0" amount="58" averageSpeed="448"/>
        </link>
        <link id="41" amount="69" averageSpeed="1042">
            <actorConfig id="0" amount="69" averageSpeed="1043"/>
        </link>
        <link id="42" amount="69" averageSpeed="1039">
            <actorConfig id="0" amount="69" averageSpeed="1039"/>
        </link>
        <link id="43" amount="76" averageSpeed="460">
            <actorConfig id="0" amount="76" averageSpeed="430"/>
        </link>
    </timeSlice>
    <timeSlice startTime="900000" duration="100000">
        <link id="32" amount="39" averageSpeed="961">
            <actorConfig id="0" amount="39" averageSpeed="766"/>
        </link>
        <link id="33" amount="24" averageSpeed="1037">
            <actorConfig id="0" amount="24" averageSpeed="1034"/>
        </link>
        <link id="34" amount="20" averageSpeed="253">
            <actorConfig id="0" amount="20" averageSpeed="175"/>
        </link>
        <link id="35" amount="33" averageSpeed="1010">
            <actorConfig id="0" amount="33" averageSpeed="1009"/>
        </link>
        <link id="36" amount="23" averageSpeed="1038">
            <actorConfig id="0" amount="23" averageSpeed="1038"/>
        </link>
        <link id="37" amount="23" averageSpeed="483">
            <actorConfig id="0" amount="23" averageSpeed="418"/>
        </link>
        <link id="38" amount="35" averageSpeed="992">
            <actorConfig id="0" amount="35" averageSpeed="1006"/>
        </link>
        <link id="39" amount="25" averageSpeed="1038">
            <actorConfig id="0" amount="25" averageSpeed="1039"/>
        </link>
        <link id="40" amount="24" averageSpeed="510">
            <actorConfig id="0" amount="24" averageSpeed="524"/>
        </link>
        <link id="41" amount="21" averageSpeed="1042">
            <actorConfig id="0" amount="21" averageSpeed="1043"/>
        </link>
        <link id="42" amount="23" averageSpeed="1039">
            <actorConfig id="0" amount="23" averageSpeed="1040"/>
        </link>
        <link id="43" amount="20" averageSpeed="463">
            <actorConfig id="0" amount="20" averageSpeed="483"/>
        </link>
    </timeSlice>
</linkData>
