<?xml version="1.0" encoding="UTF-8"?>

<!-- generated on Tue Apr  5 13:44:46 2016 by SUMO Version dev-SVN-r20343
<?xml version="1.0" encoding="UTF-8"?>

<configuration xmlns:xsi="http://www.w3.org/2001/XMLSchema-instance" xsi:noNamespaceSchemaLocation="http://sumo.dlr.de/xsd/sumoConfiguration.xsd">

    <input>
        <net-file value="net.net.xml"/>
        <route-files value="input_routes.rou.xml"/>
        <additional-files value="input_additional.add.xml"/>
    </input>

    <time>
        <begin value="0"/>
        <end value="1000"/>
    </time>

    <report>
        <xml-validation value="never"/>
        <duration-log.disable value="true"/>
        <no-step-log value="true"/>
    </report>

</configuration>
-->

<linkData xmlns:xsi="http://www.w3.org/2001/XMLSchema-instance" xsi:noNamespaceSchemaLocation="http://sumo.dlr.de/xsd/amitran/linkdata.xsd">
    <timeSlice startTime="0" duration="60000"/>
    <timeSlice startTime="60000" duration="60000">
        <link id="32" amount="2" averageSpeed="871"/>
        <link id="35" amount="2" averageSpeed="877"/>
        <link id="38" amount="4" averageSpeed="881"/>
    </timeSlice>
    <timeSlice startTime="120000" duration="60000">
        <link id="32" amount="6" averageSpeed="940"/>
        <link id="33" amount="3" averageSpeed="1040"/>
        <link id="34" amount="6" averageSpeed="1257"/>
        <link id="35" amount="6" averageSpeed="945"/>
        <link id="37" amount="6" averageSpeed="1227"/>
        <link id="38" amount="12" averageSpeed="945"/>
        <link id="40" amount="11" averageSpeed="634"/>
        <link id="42" amount="4" averageSpeed="1041"/>
    </timeSlice>
    <timeSlice startTime="180000" duration="60000">
        <link id="32" amount="9" averageSpeed="962"/>
        <link id="33" amount="6" averageSpeed="1034"/>
        <link id="34" amount="8" averageSpeed="688"/>
        <link id="35" amount="10" averageSpeed="963"/>
        <link id="36" amount="7" averageSpeed="1040"/>
        <link id="37" amount="6" averageSpeed="638"/>
        <link id="38" amount="12" averageSpeed="952"/>
        <link id="40" amount="12" averageSpeed="728"/>
        <link id="41" amount="8" averageSpeed="1043"/>
        <link id="42" amount="7" averageSpeed="1042"/>
        <link id="43" amount="2" averageSpeed="1215"/>
    </timeSlice>
    <timeSlice startTime="240000" duration="60000">
        <link id="32" amount="14" averageSpeed="974"/>
        <link id="33" amount="3" averageSpeed="1037"/>
        <link id="34" amount="7" averageSpeed="551"/>
        <link id="35" amount="11" averageSpeed="980"/>
        <link id="36" amount="12" averageSpeed="1037"/>
        <link id="37" amount="13" averageSpeed="621"/>
        <link id="38" amount="12" averageSpeed="956"/>
        <link id="39" amount="6" averageSpeed="1041"/>
        <link id="40" amount="12" averageSpeed="615"/>
        <link id="41" amount="5" averageSpeed="1042"/>
        <link id="42" amount="15" averageSpeed="1041"/>
        <link id="43" amount="9" averageSpeed="713"/>
    </timeSlice>
    <timeSlice startTime="300000" duration="60000">
        <link id="32" amount="7" averageSpeed="979"/>
        <link id="33" amount="9" averageSpeed="1038"/>
        <link id="34" amount="15" averageSpeed="539"/>
        <link id="35" amount="19" averageSpeed="992"/>
        <link id="36" amount="13" averageSpeed="1036"/>
        <link id="37" amount="12" averageSpeed="578"/>
        <link id="38" amount="19" averageSpeed="963"/>
        <link id="39" amount="1" averageSpeed="1033"/>
        <link id="40" amount="10" averageSpeed="551"/>
        <link id="41" amount="14" averageSpeed="1042"/>
        <link id="42" amount="14" averageSpeed="1040"/>
        <link id="43" amount="14" averageSpeed="720"/>
    </timeSlice>
    <timeSlice startTime="360000" duration="60000">
        <link id="32" amount="15" averageSpeed="987"/>
        <link id="33" amount="5" averageSpeed="1039"/>
        <link id="34" amount="15" averageSpeed="484"/>
        <link id="35" amount="20" averageSpeed="1002"/>
        <link id="36" amount="17" averageSpeed="1037"/>
        <link id="37" amount="13" averageSpeed="487"/>
        <link id="38" amount="14" averageSpeed="966"/>
        <link id="39" amount="9" averageSpeed="1034"/>
        <link id="40" amount="14" averageSpeed="586"/>
        <link id="41" amount="17" averageSpeed="1042"/>
        <link id="42" amount="14" averageSpeed="1040"/>
        <link id="43" amount="11" averageSpeed="623"/>
    </timeSlice>
    <timeSlice startTime="420000" duration="60000">
        <link id="32" amount="13" averageSpeed="987"/>
        <link id="33" amount="10" averageSpeed="1040"/>
        <link id="34" amount="6" averageSpeed="400"/>
        <link id="35" amount="23" averageSpeed="1005"/>
        <link id="36" amount="14" averageSpeed="1037"/>
        <link id="37" amount="18" averageSpeed="505"/>
        <link id="38" amount="20" averageSpeed="971"/>
        <link id="39" amount="11" averageSpeed="1037"/>
        <link id="40" amount="10" averageSpeed="543"/>
        <link id="41" amount="14" averageSpeed="1041"/>
        <link id="42" amount="17" averageSpeed="1038"/>
        <link id="43" amount="12" averageSpeed="493"/>
    </timeSlice>
    <timeSlice startTime="480000" duration="60000">
        <link id="32" amount="14" averageSpeed="991"/>
        <link id="33" amount="9" averageSpeed="1040"/>
        <link id="34" amount="19" averageSpeed="375"/>
        <link id="35" amount="19" averageSpeed="1006"/>
        <link id="36" amount="14" averageSpeed="1037"/>
        <link id="37" amount="12" averageSpeed="489"/>
        <link id="38" amount="21" averageSpeed="975"/>
        <link id="39" amount="5" averageSpeed="1037"/>
        <link id="40" amount="15" averageSpeed="516"/>
        <link id="41" amount="13" averageSpeed="1041"/>
        <link id="42" amount="15" averageSpeed="1039"/>
        <link id="43" amount="22" averageSpeed="470"/>
    </timeSlice>
    <timeSlice startTime="540000" duration="60000">
        <link id="32" amount="19" averageSpeed="995"/>
        <link id="33" amount="18" averageSpeed="1039"/>
        <link id="34" amount="16" averageSpeed="334"/>
        <link id="35" amount="21" averageSpeed="1007"/>
        <link id="36" amount="18" averageSpeed="1037"/>
        <link id="37" amount="15" averageSpeed="457"/>
        <link id="38" amount="20" averageSpeed="976"/>
        <link id="39" amount="14" averageSpeed="1036"/>
        <link id="40" amount="17" averageSpeed="528"/>
        <link id="41" amount="19" averageSpeed="1041"/>
        <link id="42" amount="15" averageSpeed="1039"/>
        <link id="43" amount="11" averageSpeed="471"/>
    </timeSlice>
    <timeSlice startTime="600000" duration="60000">
        <link id="32" amount="23" averageSpeed="999"/>
        <link id="33" amount="15" averageSpeed="1039"/>
        <link id="34" amount="16" averageSpeed="302"/>
        <link id="35" amount="22" averageSpeed="1009"/>
        <link id="36" amount="15" averageSpeed="1037"/>
        <link id="37" amount="19" averageSpeed="463"/>
        <link id="38" amount="22" averageSpeed="980"/>
        <link id="39" amount="15" averageSpeed="1037"/>
        <link id="40" amount="13" averageSpeed="500"/>
        <link id="41" amount="14" averageSpeed="1041"/>
        <link id="42" amount="16" averageSpeed="1039"/>
        <link id="43" amount="14" averageSpeed="439"/>
    </timeSlice>
    <timeSlice startTime="660000" duration="60000">
        <link id="32" amount="20" averageSpeed="1001"/>
        <link id="33" amount="10" averageSpeed="1038"/>
        <link id="34" amount="21" averageSpeed="280"/>
        <link id="35" amount="22" averageSpeed="1011"/>
        <link id="36" amount="14" averageSpeed="1037"/>
        <link id="37" amount="14" averageSpeed="451"/>
        <link id="38" amount="22" averageSpeed="984"/>
        <link id="39" amount="16" averageSpeed="1037"/>
        <link id="40" amount="10" averageSpeed="491"/>
        <link id="41" amount="13" averageSpeed="1042"/>
        <link id="42" amount="14" averageSpeed="1039"/>
        <link id="43" amount="20" averageSpeed="436"/>
    </timeSlice>
    <timeSlice startTime="720000" duration="60000">
        <link id="32" amount="18" averageSpeed="1003"/>
        <link id="33" amount="19" averageSpeed="1038"/>
        <link id="34" amount="17" averageSpeed="250"/>
        <link id="35" amount="21" averageSpeed="1011"/>
        <link id="36" amount="17" averageSpeed="1038"/>
        <link id="37" amount="14" averageSpeed="431"/>
        <link id="38" amount="22" averageSpeed="988"/>
        <link id="39" amount="15" averageSpeed="1036"/>
        <link id="40" amount="10" averageSpeed="486"/>
        <link id="41" amount="18" averageSpeed="1042"/>
        <link id="42" amount="12" averageSpeed="1039"/>
        <link id="43" amount="12" averageSpeed="458"/>
    </timeSlice>
    <timeSlice startTime="780000" duration="60000">
        <link id="32" amount="22" averageSpeed="1006"/>
        <link id="33" amount="14" averageSpeed="1038"/>
        <link id="34" amount="13" averageSpeed="228"/>
        <link id="35" amount="21" averageSpeed="1011"/>
        <link id="36" amount="12" averageSpeed="1038"/>
        <link id="37" amount="20" averageSpeed="435"/>
        <link id="38" amount="25" averageSpeed="990"/>
        <link id="39" amount="13" averageSpeed="1037"/>
        <link id="40" amount="13" averageSpeed="478"/>
        <link id="41" amount="11" averageSpeed="1042"/>
        <link id="42" amount="14" averageSpeed="1039"/>
        <link id="43" amount="11" averageSpeed="449"/>
    </timeSlice>
    <timeSlice startTime="840000" duration="60000">
        <link id="32" amount="22" averageSpeed="1006"/>
        <link id="33" amount="16" averageSpeed="1038"/>
        <link id="34" amount="22" averageSpeed="212"/>
        <link id="35" amount="18" averageSpeed="1011"/>
        <link id="36" amount="11" averageSpeed="1038"/>
        <link id="37" amount="10" averageSpeed="417"/>
        <link id="38" amount="21" averageSpeed="991"/>
        <link id="39" amount="15" averageSpeed="1037"/>
        <link id="40" amount="11" averageSpeed="474"/>
        <link id="41" amount="11" averageSpeed="1042"/>
        <link id="42" amount="10" averageSpeed="1039"/>
        <link id="43" amount="19" averageSpeed="455"/>
    </timeSlice>
    <timeSlice startTime="900000" duration="60000">
        <link id="32" amount="23" averageSpeed="985"/>
        <link id="33" amount="19" averageSpeed="1038"/>
        <link id="34" amount="16" averageSpeed="196"/>
        <link id="35" amount="19" averageSpeed="1012"/>
        <link id="36" amount="16" averageSpeed="1038"/>
        <link id="37" amount="10" averageSpeed="402"/>
        <link id="38" amount="23" averageSpeed="993"/>
        <link id="39" amount="11" averageSpeed="1037"/>
        <link id="40" amount="12" averageSpeed="480"/>
        <link id="41" amount="14" averageSpeed="1043"/>
        <link id="42" amount="10" averageSpeed="1039"/>
        <link id="43" amount="6" averageSpeed="452"/>
    </timeSlice>
    <timeSlice startTime="960000" duration="40000">
        <link id="32" amount="15" averageSpeed="932"/>
        <link id="33" amount="6" averageSpeed="1038"/>
        <link id="34" amount="3" averageSpeed="193"/>
        <link id="35" amount="14" averageSpeed="1012"/>
        <link id="36" amount="10" averageSpeed="1038"/>
        <link id="37" amount="12" averageSpeed="404"/>
        <link id="38" amount="13" averageSpeed="992"/>
        <link id="39" amount="9" averageSpeed="1036"/>
        <link id="40" amount="10" averageSpeed="475"/>
        <link id="41" amount="3" averageSpeed="1042"/>
        <link id="42" amount="11" averageSpeed="1039"/>
        <link id="43" amount="9" averageSpeed="453"/>
    </timeSlice>
</linkData>
