<?xml version="1.0" encoding="UTF-8"?>

<!-- generated on Thu Sep  8 11:30:45 2016 by SUMO Version dev-SVN-r21424
<?xml version="1.0" encoding="UTF-8"?>

<configuration xmlns:xsi="http://www.w3.org/2001/XMLSchema-instance" xsi:noNamespaceSchemaLocation="http://sumo.dlr.de/xsd/sumoConfiguration.xsd">

    <input>
        <net-file value="net.net.xml"/>
        <route-files value="input_routes.rou.xml"/>
        <additional-files value="input_additional.add.xml"/>
    </input>

    <processing>
        <step-method.ballistic value="true"/>
    </processing>

    <report>
        <xml-validation value="never"/>
        <duration-log.disable value="true"/>
        <no-step-log value="true"/>
    </report>

</configuration>
-->

<tls-switch-states>
    <tlsstate time="0.00" id="0" programID="0" phase="0" state="GGggrrrrGGggrrrr"/>
    <tlsstate time="9.00" id="0" programID="0" phase="1" state="yyggrrrryyggrrrr"/>
    <tlsstate time="13.00" id="0" programID="0" phase="2" state="rrGGrrrrrrGGrrrr"/>
    <tlsstate time="19.00" id="0" programID="0" phase="3" state="rryyrrrrrryyrrrr"/>
    <tlsstate time="23.00" id="0" programID="0" phase="4" state="rrrrGGggrrrrGGgg"/>
    <tlsstate time="32.00" id="0" programID="0" phase="5" state="rrrryyggrrrryygg"/>
    <tlsstate time="36.00" id="0" programID="0" phase="6" state="rrrrrrGGrrrrrrGG"/>
    <tlsstate time="42.00" id="0" programID="0" phase="7" state="rrrrrryyrrrrrryy"/>
    <tlsstate time="46.00" id="0" programID="0" phase="0" state="GGggrrrrGGggrrrr"/>
    <tlsstate time="55.00" id="0" programID="0" phase="1" state="yyggrrrryyggrrrr"/>
    <tlsstate time="59.00" id="0" programID="0" phase="2" state="rrGGrrrrrrGGrrrr"/>
    <tlsstate time="65.00" id="0" programID="0" phase="3" state="rryyrrrrrryyrrrr"/>
    <tlsstate time="69.00" id="0" programID="0" phase="4" state="rrrrGGggrrrrGGgg"/>
    <tlsstate time="89.00" id="0" programID="0" phase="5" state="rrrryyggrrrryygg"/>
    <tlsstate time="93.00" id="0" programID="0" phase="6" state="rrrrrrGGrrrrrrGG"/>
    <tlsstate time="99.00" id="0" programID="0" phase="7" state="rrrrrryyrrrrrryy"/>
    <tlsstate time="103.00" id="0" programID="0" phase="0" state="GGggrrrrGGggrrrr"/>
    <tlsstate time="112.00" id="0" programID="0" phase="1" state="yyggrrrryyggrrrr"/>
    <tlsstate time="116.00" id="0" programID="0" phase="2" state="rrGGrrrrrrGGrrrr"/>
    <tlsstate time="122.00" id="0" programID="0" phase="3" state="rryyrrrrrryyrrrr"/>
    <tlsstate time="126.00" id="0" programID="0" phase="4" state="rrrrGGggrrrrGGgg"/>
    <tlsstate time="155.00" id="0" programID="0" phase="5" state="rrrryyggrrrryygg"/>
    <tlsstate time="159.00" id="0" programID="0" phase="6" state="rrrrrrGGrrrrrrGG"/>
    <tlsstate time="165.00" id="0" programID="0" phase="7" state="rrrrrryyrrrrrryy"/>
    <tlsstate time="169.00" id="0" programID="0" phase="0" state="GGggrrrrGGggrrrr"/>
    <tlsstate time="210.00" id="0" programID="0" phase="1" state="yyggrrrryyggrrrr"/>
    <tlsstate time="214.00" id="0" programID="0" phase="2" state="rrGGrrrrrrGGrrrr"/>
    <tlsstate time="220.00" id="0" programID="0" phase="3" state="rryyrrrrrryyrrrr"/>
    <tlsstate time="224.00" id="0" programID="0" phase="4" state="rrrrGGggrrrrGGgg"/>
    <tlsstate time="265.00" id="0" programID="0" phase="5" state="rrrryyggrrrryygg"/>
    <tlsstate time="269.00" id="0" programID="0" phase="6" state="rrrrrrGGrrrrrrGG"/>
    <tlsstate time="275.00" id="0" programID="0" phase="7" state="rrrrrryyrrrrrryy"/>
    <tlsstate time="279.00" id="0" programID="0" phase="0" state="GGggrrrrGGggrrrr"/>
    <tlsstate time="294.00" id="0" programID="0" phase="1" state="yyggrrrryyggrrrr"/>
    <tlsstate time="298.00" id="0" programID="0" phase="2" state="rrGGrrrrrrGGrrrr"/>
    <tlsstate time="304.00" id="0" programID="0" phase="3" state="rryyrrrrrryyrrrr"/>
    <tlsstate time="308.00" id="0" programID="0" phase="4" state="rrrrGGggrrrrGGgg"/>
    <tlsstate time="326.00" id="0" programID="0" phase="5" state="rrrryyggrrrryygg"/>
    <tlsstate time="330.00" id="0" programID="0" phase="6" state="rrrrrrGGrrrrrrGG"/>
    <tlsstate time="336.00" id="0" programID="0" phase="7" state="rrrrrryyrrrrrryy"/>
    <tlsstate time="340.00" id="0" programID="0" phase="0" state="GGggrrrrGGggrrrr"/>
    <tlsstate time="349.00" id="0" programID="0" phase="1" state="yyggrrrryyggrrrr"/>
    <tlsstate time="353.00" id="0" programID="0" phase="2" state="rrGGrrrrrrGGrrrr"/>
    <tlsstate time="359.00" id="0" programID="0" phase="3" state="rryyrrrrrryyrrrr"/>
    <tlsstate time="363.00" id="0" programID="0" phase="4" state="rrrrGGggrrrrGGgg"/>
    <tlsstate time="417.00" id="0" programID="0" phase="5" state="rrrryyggrrrryygg"/>
    <tlsstate time="421.00" id="0" programID="0" phase="6" state="rrrrrrGGrrrrrrGG"/>
    <tlsstate time="427.00" id="0" programID="0" phase="7" state="rrrrrryyrrrrrryy"/>
    <tlsstate time="431.00" id="0" programID="0" phase="0" state="GGggrrrrGGggrrrr"/>
    <tlsstate time="440.00" id="0" programID="0" phase="1" state="yyggrrrryyggrrrr"/>
    <tlsstate time="444.00" id="0" programID="0" phase="2" state="rrGGrrrrrrGGrrrr"/>
    <tlsstate time="450.00" id="0" programID="0" phase="3" state="rryyrrrrrryyrrrr"/>
    <tlsstate time="454.00" id="0" programID="0" phase="4" state="rrrrGGggrrrrGGgg"/>
    <tlsstate time="463.00" id="0" programID="0" phase="5" state="rrrryyggrrrryygg"/>
    <tlsstate time="467.00" id="0" programID="0" phase="6" state="rrrrrrGGrrrrrrGG"/>
    <tlsstate time="473.00" id="0" programID="0" phase="7" state="rrrrrryyrrrrrryy"/>
    <tlsstate time="477.00" id="0" programID="0" phase="0" state="GGggrrrrGGggrrrr"/>
    <tlsstate time="486.00" id="0" programID="0" phase="1" state="yyggrrrryyggrrrr"/>
    <tlsstate time="490.00" id="0" programID="0" phase="2" state="rrGGrrrrrrGGrrrr"/>
    <tlsstate time="496.00" id="0" programID="0" phase="3" state="rryyrrrrrryyrrrr"/>
    <tlsstate time="500.00" id="0" programID="0" phase="4" state="rrrrGGggrrrrGGgg"/>
</tls-switch-states>
