<routes>
    <vType id="DEFAULT_VEHTYPE" laneChangeModel="JE2013"/>

    <route id="r0" edges="VODUGES_end end2"/>

    <vehicle id="stopped"  route="r0" departPos="140" depart="0">
        <stop lane="VODUGES_end_0" endPos="149" duration="100"/>
    </vehicle>
    <vehicle id="overtaking" route="r0" departPos="100"  depart="0"/>

</routes>
