<?xml version="1.0" encoding="UTF-8"?>

<!-- generated on Tue Apr  5 13:43:56 2016 by SUMO Version dev-SVN-r20343
<?xml version="1.0" encoding="UTF-8"?>

<configuration xmlns:xsi="http://www.w3.org/2001/XMLSchema-instance" xsi:noNamespaceSchemaLocation="http://sumo.dlr.de/xsd/sumoConfiguration.xsd">

    <input>
        <net-file value="net.net.xml"/>
        <route-files value="input_routes.rou.xml"/>
        <additional-files value="input_additional.add.xml"/>
    </input>

    <report>
        <xml-validation value="never"/>
        <duration-log.disable value="true"/>
        <no-step-log value="true"/>
    </report>

</configuration>
-->

<instantE1>
    <instantOut id="instant_beg_0_before" time="17.72" state="enter" vehID="v0" speed="13.89" length="5.00" type="DEFAULT_VEHTYPE"/>
    <instantOut id="instant_beg_0_before" time="18.00" state="stay" vehID="v0" speed="13.89" length="5.00" type="DEFAULT_VEHTYPE"/>
    <instantOut id="instant_beg_0_before" time="18.08" state="leave" vehID="v0" speed="13.89" length="5.00" type="DEFAULT_VEHTYPE" occupancy="0.36"/>
    <instantOut id="instant_beg_1_at" time="34.14" state="enter" vehID="v0" speed="13.89" length="5.00" type="DEFAULT_VEHTYPE"/>
    <instantOut id="instant_beg_1_at" time="34.50" state="leave" vehID="v0" speed="13.89" length="5.00" type="DEFAULT_VEHTYPE" occupancy="0.36"/>
    <instantOut id="instant_beg_1_after" time="35.72" state="enter" vehID="v0" speed="13.89" length="5.00" type="DEFAULT_VEHTYPE"/>
    <instantOut id="instant_beg_1_after" time="36.00" state="stay" vehID="v0" speed="13.89" length="5.00" type="DEFAULT_VEHTYPE"/>
    <instantOut id="instant_beg_1_after" time="36.08" state="leave" vehID="v0" speed="13.89" length="5.00" type="DEFAULT_VEHTYPE" occupancy="0.36"/>
</instantE1>
