<?xml version="1.0" encoding="UTF-8"?>

<!-- generated on 12/02/15 15:19:47 by SUMO Version dev-SVN-r19428D
<?xml version="1.0" encoding="UTF-8"?>

<configuration xmlns:xsi="http://www.w3.org/2001/XMLSchema-instance" xsi:noNamespaceSchemaLocation="http://sumo.dlr.de/xsd/sumoConfiguration.xsd">

    <input>
        <net-file value="net.net.xml"/>
        <route-files value="input_routes.rou.xml"/>
        <additional-files value="input_additional.add.xml"/>
    </input>

    <output>
        <battery-output value="battery.xml"/>
        <battery-output.precision value="4"/>
    </output>

    <report>
        <duration-log.disable value="true"/>
        <no-step-log value="true"/>
    </report>

    <battery>
        <device.battery.probability value="1"/>
    </battery>

</configuration>
-->

<battery-export>
    <timeStep time="0.00">
        <vehicle id="vehWithCustDepartEnergy" energyConsumed="0.0000" actualBatteryCapacity="10000.0000" maximumBatteryCapacity="35000.0000" chargingStationId="NULL" energyCharged="0.0000" energyChargedInTransit="0.0000" energyChargedStopped="0.0000" speed="0.6962" acceleration="0.0000" posx="1428.2700" posy="25.5700" lane="76to16_0" posOnLane="0.0000" timeStopped="0"/>
    </timeStep>
    <timeStep time="1.00">
        <vehicle id="vehWithCustDepartEnergy" energyConsumed="3.3629" actualBatteryCapacity="9996.6371" maximumBatteryCapacity="35000.0000" chargingStationId="NULL" energyCharged="0.0000" energyChargedInTransit="0.0000" energyChargedStopped="0.0000" speed="2.6573" acceleration="1.9611" posx="1427.3166" posy="28.0503" lane="76to16_0" posOnLane="2.6573" timeStopped="0"/>
    </timeStep>
    <timeStep time="2.00">
        <vehicle id="vehWithCustDepartEnergy" energyConsumed="6.2509" actualBatteryCapacity="9990.3863" maximumBatteryCapacity="35000.0000" chargingStationId="NULL" energyCharged="0.0000" energyChargedInTransit="0.0000" energyChargedStopped="0.0000" speed="4.4904" acceleration="1.8331" posx="1425.7054" posy="32.2416" lane="76to16_0" posOnLane="7.1477" timeStopped="0"/>
    </timeStep>
    <timeStep time="3.00">
        <vehicle id="vehWithCustDepartEnergy" energyConsumed="12.3468" actualBatteryCapacity="9978.0395" maximumBatteryCapacity="35000.0000" chargingStationId="NULL" energyCharged="0.0000" energyChargedInTransit="0.0000" energyChargedStopped="0.0000" speed="7.0337" acceleration="2.5433" posx="1423.1817" posy="38.8067" lane="76to16_0" posOnLane="14.1814" timeStopped="0"/>
    </timeStep>
    <timeStep time="4.00">
        <vehicle id="vehWithCustDepartEnergy" energyConsumed="12.2292" actualBatteryCapacity="9965.8103" maximumBatteryCapacity="35000.0000" chargingStationId="NULL" energyCharged="0.0000" energyChargedInTransit="0.0000" energyChargedStopped="0.0000" speed="8.6674" acceleration="1.6338" posx="1420.0719" posy="46.8968" lane="76to16_0" posOnLane="22.8488" timeStopped="0"/>
    </timeStep>
    <timeStep time="5.00">
        <vehicle id="vehWithCustDepartEnergy" energyConsumed="19.0559" actualBatteryCapacity="9946.7544" maximumBatteryCapacity="35000.0000" chargingStationId="NULL" energyCharged="0.0000" energyChargedInTransit="0.0000" energyChargedStopped="0.0000" speed="10.9457" acceleration="2.2782" posx="1416.1446" posy="57.1133" lane="76to16_0" posOnLane="33.7945" timeStopped="0"/>
    </timeStep>
    <timeStep time="6.00">
        <vehicle id="vehWithCustDepartEnergy" energyConsumed="20.2929" actualBatteryCapacity="9926.4615" maximumBatteryCapacity="35000.0000" chargingStationId="NULL" energyCharged="0.0000" energyChargedInTransit="0.0000" energyChargedStopped="0.0000" speed="12.8368" acceleration="1.8911" posx="1411.5387" posy="69.0951" lane="76to16_0" posOnLane="46.6314" timeStopped="0"/>
    </timeStep>
    <timeStep time="7.00">
        <vehicle id="vehWithCustDepartEnergy" energyConsumed="20.0440" actualBatteryCapacity="9906.4175" maximumBatteryCapacity="35000.0000" chargingStationId="NULL" energyCharged="0.0000" energyChargedInTransit="0.0000" energyChargedStopped="0.0000" speed="14.3393" acceleration="1.5025" posx="1406.3938" posy="82.4792" lane="76to16_0" posOnLane="60.9707" timeStopped="0"/>
    </timeStep>
    <timeStep time="8.00">
        <vehicle id="vehWithCustDepartEnergy" energyConsumed="17.1032" actualBatteryCapacity="9889.3143" maximumBatteryCapacity="35000.0000" chargingStationId="NULL" energyCharged="0.0000" energyChargedInTransit="0.0000" energyChargedStopped="0.0000" speed="15.3002" acceleration="0.9608" posx="1400.9041" posy="96.7601" lane="76to16_0" posOnLane="76.2709" timeStopped="0"/>
    </timeStep>
    <timeStep time="9.00">
        <vehicle id="vehWithCustDepartEnergy" energyConsumed="0.9064" actualBatteryCapacity="9888.4078" maximumBatteryCapacity="35000.0000" chargingStationId="NULL" energyCharged="0.0000" energyChargedInTransit="0.0000" energyChargedStopped="0.0000" speed="14.4331" acceleration="-0.8671" posx="1395.7255" posy="110.2318" lane="76to16_0" posOnLane="90.7040" timeStopped="0"/>
    </timeStep>
    <timeStep time="10.00">
        <vehicle id="vehWithCustDepartEnergy" energyConsumed="10.7665" actualBatteryCapacity="9877.6413" maximumBatteryCapacity="35000.0000" chargingStationId="NULL" energyCharged="0.0000" energyChargedInTransit="0.0000" energyChargedStopped="0.0000" speed="14.7020" acceleration="0.2689" posx="1390.4504" posy="123.9544" lane="76to16_0" posOnLane="105.4060" timeStopped="0"/>
    </timeStep>
    <timeStep time="11.00">
        <vehicle id="vehWithBusStop" energyConsumed="0.0000" actualBatteryCapacity="17500.0000" maximumBatteryCapacity="35000.0000" chargingStationId="NULL" energyCharged="0.0000" energyChargedInTransit="0.0000" energyChargedStopped="0.0000" speed="0.8679" acceleration="0.0000" posx="1428.2700" posy="25.5700" lane="76to16_0" posOnLane="0.0000" timeStopped="0"/>
        <vehicle id="vehWithCustDepartEnergy" energyConsumed="8.6754" actualBatteryCapacity="9868.9659" maximumBatteryCapacity="35000.0000" chargingStationId="NULL" energyCharged="0.0000" energyChargedInTransit="0.0000" energyChargedStopped="0.0000" speed="14.7203" acceleration="0.0183" posx="1385.1688" posy="137.6941" lane="76to16_0" posOnLane="120.1262" timeStopped="0"/>
    </timeStep>
    <timeStep time="12.00">
        <vehicle id="vehWithBusStop" energyConsumed="4.1468" actualBatteryCapacity="17495.8532" maximumBatteryCapacity="35000.0000" chargingStationId="NULL" energyCharged="0.0000" energyChargedInTransit="0.0000" energyChargedStopped="0.0000" speed="3.0494" acceleration="2.1814" posx="1427.1759" posy="28.4162" lane="76to16_0" posOnLane="3.0494" timeStopped="0"/>
        <vehicle id="vehWithCustDepartEnergy" energyConsumed="3.5846" actualBatteryCapacity="9865.3813" maximumBatteryCapacity="35000.0000" chargingStationId="NULL" energyCharged="0.0000" energyChargedInTransit="0.0000" energyChargedStopped="0.0000" speed="14.1697" acceleration="-0.5505" posx="1380.0847" posy="150.9199" lane="76to16_0" posOnLane="134.2960" timeStopped="0"/>
    </timeStep>
    <timeStep time="13.00">
        <vehicle id="vehWithBusStop" energyConsumed="9.4101" actualBatteryCapacity="17486.4431" maximumBatteryCapacity="35000.0000" chargingStationId="NULL" energyCharged="0.0000" energyChargedInTransit="0.0000" energyChargedStopped="0.0000" speed="5.5893" acceleration="2.5399" posx="1425.1704" posy="33.6332" lane="76to16_0" posOnLane="8.6387" timeStopped="0"/>
        <vehicle id="vehWithCustDepartEnergy" energyConsumed="10.3837" actualBatteryCapacity="9854.9976" maximumBatteryCapacity="35000.0000" chargingStationId="NULL" energyCharged="0.0000" energyChargedInTransit="0.0000" energyChargedStopped="0.0000" speed="14.4193" acceleration="0.2496" posx="1374.9111" posy="164.3787" lane="76to16_0" posOnLane="148.7153" timeStopped="0"/>
    </timeStep>
    <timeStep time="14.00">
        <vehicle id="vehWithBusStop" energyConsumed="12.8174" actualBatteryCapacity="17473.6258" maximumBatteryCapacity="35000.0000" chargingStationId="NULL" energyCharged="0.0000" energyChargedInTransit="0.0000" energyChargedStopped="0.0000" speed="7.7901" acceleration="2.2008" posx="1422.3753" posy="40.9045" lane="76to16_0" posOnLane="16.4288" timeStopped="0"/>
        <vehicle id="vehWithCustDepartEnergy" energyConsumed="10.3275" actualBatteryCapacity="9844.6701" maximumBatteryCapacity="35000.0000" chargingStationId="NULL" energyCharged="0.0000" energyChargedInTransit="0.0000" energyChargedStopped="0.0000" speed="14.6411" acceleration="0.2218" posx="1369.6579" posy="178.0445" lane="76to16_0" posOnLane="163.3564" timeStopped="0"/>
    </timeStep>
    <timeStep time="15.00">
        <vehicle id="vehWithBusStop" energyConsumed="11.8695" actualBatteryCapacity="17461.7563" maximumBatteryCapacity="35000.0000" chargingStationId="NULL" energyCharged="0.0000" energyChargedInTransit="0.0000" energyChargedStopped="0.0000" speed="9.1694" acceleration="1.3792" posx="1419.0854" posy="49.4630" lane="76to16_0" posOnLane="25.5982" timeStopped="0"/>
        <vehicle id="vehWithCustDepartEnergy" energyConsumed="7.0541" actualBatteryCapacity="9837.6160" maximumBatteryCapacity="35000.0000" chargingStationId="NULL" energyCharged="0.0000" energyChargedInTransit="0.0000" energyChargedStopped="0.0000" speed="14.4845" acceleration="-0.1567" posx="1364.4608" posy="191.5641" lane="76to16_0" posOnLane="177.8409" timeStopped="0"/>
    </timeStep>
    <timeStep time="16.00">
        <vehicle id="vehWithBusStop" energyConsumed="14.2263" actualBatteryCapacity="17447.5300" maximumBatteryCapacity="35000.0000" chargingStationId="NULL" energyCharged="0.0000" energyChargedInTransit="0.0000" energyChargedStopped="0.0000" speed="10.6155" acceleration="1.4461" posx="1415.2765" posy="59.3714" lane="76to16_0" posOnLane="36.2137" timeStopped="0"/>
        <vehicle id="vehWithCustDepartEnergy" energyConsumed="6.1572" actualBatteryCapacity="9831.4588" maximumBatteryCapacity="35000.0000" chargingStationId="NULL" energyCharged="0.0000" energyChargedInTransit="0.0000" energyChargedStopped="0.0000" speed="14.2364" acceleration="-0.2481" posx="1359.3528" posy="204.8522" lane="76to16_0" posOnLane="192.0773" timeStopped="0"/>
    </timeStep>
    <timeStep time="17.00">
        <vehicle id="vehWithBusStop" energyConsumed="19.7386" actualBatteryCapacity="17427.7914" maximumBatteryCapacity="35000.0000" chargingStationId="NULL" energyCharged="0.0000" energyChargedInTransit="0.0000" energyChargedStopped="0.0000" speed="12.5079" acceleration="1.8924" posx="1410.7887" posy="71.0460" lane="76to16_0" posOnLane="48.7216" timeStopped="0"/>
        <vehicle id="vehWithCustDepartEnergy" energyConsumed="13.2189" actualBatteryCapacity="9818.2399" maximumBatteryCapacity="35000.0000" chargingStationId="NULL" energyCharged="0.0000" energyChargedInTransit="0.0000" energyChargedStopped="0.0000" speed="14.7925" acceleration="0.5560" posx="1354.0453" posy="218.6592" lane="76to16_0" posOnLane="206.8697" timeStopped="0"/>
    </timeStep>
    <timeStep time="18.00">
        <vehicle id="vehWithBusStop" energyConsumed="22.6460" actualBatteryCapacity="17405.1454" maximumBatteryCapacity="35000.0000" chargingStationId="NULL" energyCharged="0.0000" energyChargedInTransit="0.0000" energyChargedStopped="0.0000" speed="14.3617" acceleration="1.8538" posx="1405.6358" posy="84.4510" lane="76to16_0" posOnLane="63.0833" timeStopped="0"/>
        <vehicle id="vehWithCustDepartEnergy" energyConsumed="10.4856" actualBatteryCapacity="9807.7542" maximumBatteryCapacity="35000.0000" chargingStationId="NULL" energyCharged="0.0000" energyChargedInTransit="0.0000" energyChargedStopped="0.0000" speed="15.0003" acceleration="0.2078" posx="1348.6632" posy="232.6603" lane="76to16_0" posOnLane="221.8700" timeStopped="0"/>
    </timeStep>
    <timeStep time="19.00">
        <vehicle id="vehWithBusStop" energyConsumed="0.0712" actualBatteryCapacity="17405.0742" maximumBatteryCapacity="35000.0000" chargingStationId="NULL" energyCharged="0.0000" energyChargedInTransit="0.0000" energyChargedStopped="0.0000" speed="13.4100" acceleration="-0.9517" posx="1400.8243" posy="96.9677" lane="76to16_0" posOnLane="76.4933" timeStopped="0"/>
        <vehicle id="vehWithCustDepartEnergy" energyConsumed="7.9176" actualBatteryCapacity="9799.8367" maximumBatteryCapacity="35000.0000" chargingStationId="NULL" energyCharged="0.0000" energyChargedInTransit="0.0000" energyChargedStopped="0.0000" speed="14.9157" acceleration="-0.0846" posx="1343.3115" posy="246.5824" lane="76to16_0" posOnLane="236.7857" timeStopped="0"/>
    </timeStep>
    <timeStep time="20.00">
        <vehicle id="vehWithBusStop" energyConsumed="5.6200" actualBatteryCapacity="17399.4542" maximumBatteryCapacity="35000.0000" chargingStationId="NULL" energyCharged="0.0000" energyChargedInTransit="0.0000" energyChargedStopped="0.0000" speed="13.1603" acceleration="-0.2497" posx="1396.1024" posy="109.2513" lane="76to16_0" posOnLane="89.6536" timeStopped="0"/>
        <vehicle id="vehWithCustDepartEnergy" energyConsumed="10.3710" actualBatteryCapacity="9789.4657" maximumBatteryCapacity="35000.0000" chargingStationId="NULL" energyCharged="0.0000" energyChargedInTransit="0.0000" energyChargedStopped="0.0000" speed="15.1012" acceleration="0.1855" posx="1337.8932" posy="260.6776" lane="76to16_0" posOnLane="251.8869" timeStopped="0"/>
    </timeStep>
    <timeStep time="21.00">
        <vehicle id="vehWithBusStop" energyConsumed="10.4665" actualBatteryCapacity="17388.9877" maximumBatteryCapacity="35000.0000" chargingStationId="NULL" energyCharged="0.0000" energyChargedInTransit="0.0000" energyChargedStopped="0.0000" speed="13.5132" acceleration="0.3530" posx="1391.2538" posy="121.8644" lane="76to16_0" posOnLane="103.1668" timeStopped="0"/>
        <vehicle id="vehWithCustDepartEnergy" energyConsumed="-2.7240" actualBatteryCapacity="9792.1897" maximumBatteryCapacity="35000.0000" chargingStationId="NULL" energyCharged="0.0000" energyChargedInTransit="0.0000" energyChargedStopped="0.0000" speed="13.6416" acceleration="-1.4595" posx="1332.9986" posy="273.4105" lane="76to16_0" posOnLane="265.5285" timeStopped="0"/>
    </timeStep>
    <timeStep time="22.00">
        <vehicle id="vehWithBusStop" energyConsumed="13.9873" actualBatteryCapacity="17375.0005" maximumBatteryCapacity="35000.0000" chargingStationId="NULL" energyCharged="0.0000" energyChargedInTransit="0.0000" energyChargedStopped="0.0000" speed="14.2357" acceleration="0.7224" posx="1386.1461" posy="135.1518" lane="76to16_0" posOnLane="117.4025" timeStopped="0"/>
        <vehicle id="vehWithCustDepartEnergy" energyConsumed="-15.6384" actualBatteryCapacity="9807.8281" maximumBatteryCapacity="35000.0000" chargingStationId="NULL" energyCharged="0.0000" energyChargedInTransit="0.0000" energyChargedStopped="0.0000" speed="9.1416" acceleration="-4.5000" posx="1334.6569" posy="280.9602" lane="16to38_0" posOnLane="0.9101" timeStopped="0"/>
    </timeStep>
    <timeStep time="23.00">
        <vehicle id="vehWithBusStop" energyConsumed="8.2561" actualBatteryCapacity="17366.7444" maximumBatteryCapacity="35000.0000" chargingStationId="NULL" energyCharged="0.0000" energyChargedInTransit="0.0000" energyChargedStopped="0.0000" speed="14.2408" acceleration="0.0052" posx="1381.0365" posy="148.4440" lane="76to16_0" posOnLane="131.6433" timeStopped="0"/>
        <vehicle id="vehWithCustDepartEnergy" energyConsumed="2.2814" actualBatteryCapacity="9805.5468" maximumBatteryCapacity="35000.0000" chargingStationId="NULL" energyCharged="0.0000" energyChargedInTransit="0.0000" energyChargedStopped="0.0000" speed="8.6456" acceleration="-0.4960" posx="1342.5120" posy="284.5721" lane="16to38_0" posOnLane="9.5558" timeStopped="0"/>
    </timeStep>
    <timeStep time="24.00">
        <vehicle id="vehWithBusStop" energyConsumed="-0.6949" actualBatteryCapacity="17367.4393" maximumBatteryCapacity="35000.0000" chargingStationId="NULL" energyCharged="0.0000" energyChargedInTransit="0.0000" energyChargedStopped="0.0000" speed="13.1499" acceleration="-1.0909" posx="1376.3183" posy="160.7179" lane="76to16_0" posOnLane="144.7932" timeStopped="0"/>
        <vehicle id="vehWithCustDepartEnergy" energyConsumed="5.8995" actualBatteryCapacity="9799.6473" maximumBatteryCapacity="35000.0000" chargingStationId="NULL" energyCharged="0.0000" energyChargedInTransit="0.0000" energyChargedStopped="0.0000" speed="8.8371" acceleration="0.1915" posx="1350.5410" posy="288.2640" lane="16to38_0" posOnLane="18.3929" timeStopped="0"/>
    </timeStep>
    <timeStep time="25.00">
        <vehicle id="vehWithBusStop" energyConsumed="15.7057" actualBatteryCapacity="17351.7336" maximumBatteryCapacity="35000.0000" chargingStationId="NULL" energyCharged="0.0000" energyChargedInTransit="0.0000" energyChargedStopped="0.0000" speed="14.1138" acceleration="0.9638" posx="1371.2543" posy="173.8915" lane="76to16_0" posOnLane="158.9070" timeStopped="0"/>
        <vehicle id="vehWithCustDepartEnergy" energyConsumed="5.6484" actualBatteryCapacity="9793.9989" maximumBatteryCapacity="35000.0000" chargingStationId="NULL" energyCharged="0.0000" energyChargedInTransit="0.0000" energyChargedStopped="0.0000" speed="8.9621" acceleration="0.1250" posx="1358.6836" posy="292.0080" lane="16to38_0" posOnLane="27.3549" timeStopped="0"/>
    </timeStep>
    <timeStep time="26.00">
        <vehicle id="vehWithBusStop" energyConsumed="4.2197" actualBatteryCapacity="17347.5139" maximumBatteryCapacity="35000.0000" chargingStationId="NULL" energyCharged="0.0000" energyChargedInTransit="0.0000" energyChargedStopped="0.0000" speed="13.6608" acceleration="-0.4530" posx="1366.3528" posy="186.6423" lane="76to16_0" posOnLane="172.5678" timeStopped="0"/>
        <vehicle id="vehWithCustDepartEnergy" energyConsumed="4.4614" actualBatteryCapacity="9789.5374" maximumBatteryCapacity="35000.0000" chargingStationId="NULL" energyCharged="0.0000" energyChargedInTransit="0.0000" energyChargedStopped="0.0000" speed="8.8666" acceleration="-0.0955" posx="1366.7394" posy="295.7122" lane="16to38_0" posOnLane="36.2215" timeStopped="0"/>
    </timeStep>
    <timeStep time="27.00">
        <vehicle id="vehWithBusStop" energyConsumed="5.2204" actualBatteryCapacity="17342.2936" maximumBatteryCapacity="35000.0000" chargingStationId="NULL" energyCharged="0.0000" energyChargedInTransit="0.0000" energyChargedStopped="0.0000" speed="13.3486" acceleration="-0.3121" posx="1361.5634" posy="199.1017" lane="76to16_0" posOnLane="185.9164" timeStopped="0"/>
        <vehicle id="vehWithCustDepartEnergy" energyConsumed="6.0908" actualBatteryCapacity="9783.4467" maximumBatteryCapacity="35000.0000" chargingStationId="NULL" energyCharged="0.0000" energyChargedInTransit="0.0000" energyChargedStopped="0.0000" speed="9.0647" acceleration="0.1981" posx="1374.9752" posy="299.4992" lane="16to38_0" posOnLane="45.2862" timeStopped="0"/>
    </timeStep>
    <timeStep time="28.00">
        <vehicle id="vehWithBusStop" energyConsumed="9.2131" actualBatteryCapacity="17333.0805" maximumBatteryCapacity="35000.0000" chargingStationId="NULL" energyCharged="0.0000" energyChargedInTransit="0.0000" energyChargedStopped="0.0000" speed="13.5353" acceleration="0.1866" posx="1356.7069" posy="211.7353" lane="76to16_0" posOnLane="199.4517" timeStopped="0"/>
        <vehicle id="vehWithCustDepartEnergy" energyConsumed="0.5311" actualBatteryCapacity="9782.9156" maximumBatteryCapacity="35000.0000" chargingStationId="NULL" energyCharged="0.0000" energyChargedInTransit="0.0000" energyChargedStopped="0.0000" speed="8.2502" acceleration="-0.8145" posx="1382.4710" posy="302.9458" lane="16to38_0" posOnLane="53.5363" timeStopped="0"/>
    </timeStep>
    <timeStep time="29.00">
        <vehicle id="vehWithBusStop" energyConsumed="8.5575" actualBatteryCapacity="17324.5230" maximumBatteryCapacity="35000.0000" chargingStationId="NULL" energyCharged="0.0000" energyChargedInTransit="0.0000" energyChargedStopped="0.0000" speed="13.6287" acceleration="0.0935" posx="1351.8169" posy="224.4562" lane="76to16_0" posOnLane="213.0804" timeStopped="0"/>
        <vehicle id="vehWithCustDepartEnergy" energyConsumed="4.7617" actualBatteryCapacity="9778.1538" maximumBatteryCapacity="35000.0000" chargingStationId="NULL" energyCharged="0.0000" energyChargedInTransit="0.0000" energyChargedStopped="0.0000" speed="8.2813" acceleration="0.0311" posx="1389.9950" posy="306.4055" lane="16to38_0" posOnLane="61.8177" timeStopped="0"/>
    </timeStep>
    <timeStep time="30.00">
        <vehicle id="vehWithBusStop" energyConsumed="4.1454" actualBatteryCapacity="17320.3776" maximumBatteryCapacity="35000.0000" chargingStationId="NULL" energyCharged="0.0000" energyChargedInTransit="0.0000" energyChargedStopped="0.0000" speed="13.1883" acceleration="-0.4405" posx="1347.0850" posy="236.7659" lane="76to16_0" posOnLane="226.2687" timeStopped="0"/>
        <vehicle id="vehWithCustDepartEnergy" energyConsumed="2.7828" actualBatteryCapacity="9775.3710" maximumBatteryCapacity="35000.0000" chargingStationId="NULL" energyCharged="0.0000" energyChargedInTransit="0.0000" energyChargedStopped="0.0000" speed="7.9325" acceleration="-0.3488" posx="1397.2022" posy="309.7194" lane="16to38_0" posOnLane="69.7501" timeStopped="0"/>
    </timeStep>
    <timeStep time="31.00">
        <vehicle id="vehWithBusStop" energyConsumed="14.4530" actualBatteryCapacity="17305.9246" maximumBatteryCapacity="35000.0000" chargingStationId="NULL" energyCharged="0.0000" energyChargedInTransit="0.0000" energyChargedStopped="0.0000" speed="14.0037" acceleration="0.8154" posx="1342.0605" posy="249.8368" lane="76to16_0" posOnLane="240.2724" timeStopped="0"/>
        <vehicle id="vehWithCustDepartEnergy" energyConsumed="7.6471" actualBatteryCapacity="9767.7239" maximumBatteryCapacity="35000.0000" chargingStationId="NULL" energyCharged="0.0000" energyChargedInTransit="0.0000" energyChargedStopped="0.0000" speed="8.5400" acceleration="0.6076" posx="1404.9613" posy="313.2872" lane="16to38_0" posOnLane="78.2902" timeStopped="0"/>
    </timeStep>
    <timeStep time="32.00">
        <vehicle id="vehWithBusStop" energyConsumed="5.0180" actualBatteryCapacity="17300.9066" maximumBatteryCapacity="35000.0000" chargingStationId="NULL" energyCharged="0.0000" energyChargedInTransit="0.0000" energyChargedStopped="0.0000" speed="13.6498" acceleration="-0.3540" posx="1337.1629" posy="262.5773" lane="76to16_0" posOnLane="253.9222" timeStopped="0"/>
        <vehicle id="vehWithCustDepartEnergy" energyConsumed="7.1327" actualBatteryCapacity="9760.5912" maximumBatteryCapacity="35000.0000" chargingStationId="NULL" energyCharged="0.0000" energyChargedInTransit="0.0000" energyChargedStopped="0.0000" speed="8.9615" acceleration="0.4214" posx="1413.1034" posy="317.0310" lane="16to38_0" posOnLane="87.2516" timeStopped="0"/>
    </timeStep>
    <timeStep time="33.00">
        <vehicle id="vehWithBusStop" energyConsumed="3.7682" actualBatteryCapacity="17297.1384" maximumBatteryCapacity="35000.0000" chargingStationId="NULL" energyCharged="0.0000" energyChargedInTransit="0.0000" energyChargedStopped="0.0000" speed="13.1625" acceleration="-0.4873" posx="1332.4403" posy="274.8629" lane="76to16_0" posOnLane="267.0846" timeStopped="0"/>
        <vehicle id="vehWithCustDepartEnergy" energyConsumed="4.8955" actualBatteryCapacity="9755.6957" maximumBatteryCapacity="35000.0000" chargingStationId="NULL" energyCharged="0.0000" energyChargedInTransit="0.0000" energyChargedStopped="0.0000" speed="8.9420" acceleration="-0.0194" posx="1421.2277" posy="320.7667" lane="16to38_0" posOnLane="96.1937" timeStopped="0"/>
    </timeStep>
    <timeStep time="34.00">
        <vehicle id="vehWithBusStop" energyConsumed="10.9260" actualBatteryCapacity="17286.2124" maximumBatteryCapacity="35000.0000" chargingStationId="NULL" energyCharged="0.0000" energyChargedInTransit="0.0000" energyChargedStopped="0.0000" speed="13.5697" acceleration="0.4072" posx="1327.4338" posy="287.5121" lane="16to13_0" posOnLane="2.4943" timeStopped="0"/>
        <vehicle id="vehWithCustDepartEnergy" energyConsumed="5.2314" actualBatteryCapacity="9750.4644" maximumBatteryCapacity="35000.0000" chargingStationId="NULL" energyCharged="0.0000" energyChargedInTransit="0.0000" energyChargedStopped="0.0000" speed="8.9830" acceleration="0.0410" posx="1429.3893" posy="324.5195" lane="16to38_0" posOnLane="105.1767" timeStopped="0"/>
    </timeStep>
    <timeStep time="35.00">
        <vehicle id="vehWithBusStop" energyConsumed="14.7189" actualBatteryCapacity="17271.4934" maximumBatteryCapacity="35000.0000" chargingStationId="NULL" energyCharged="0.0000" energyChargedInTransit="0.0000" energyChargedStopped="0.0000" speed="14.3677" acceleration="0.7979" posx="1322.0410" posy="300.8301" lane="16to13_0" posOnLane="16.8620" timeStopped="0"/>
        <vehicle id="vehWithCustDepartEnergy" energyConsumed="4.0767" actualBatteryCapacity="9746.3877" maximumBatteryCapacity="35000.0000" chargingStationId="NULL" energyCharged="0.0000" energyChargedInTransit="0.0000" energyChargedStopped="0.0000" speed="8.8179" acceleration="-0.1651" posx="1437.4009" posy="328.2034" lane="16to38_0" posOnLane="113.9946" timeStopped="0"/>
    </timeStep>
    <timeStep time="36.00">
        <vehicle id="vehWithBusStop" energyConsumed="2.4107" actualBatteryCapacity="17269.0827" maximumBatteryCapacity="35000.0000" chargingStationId="NULL" energyCharged="0.0000" energyChargedInTransit="0.0000" energyChargedStopped="0.0000" speed="13.6930" acceleration="-0.6746" posx="1316.9015" posy="313.5227" lane="16to13_0" posOnLane="30.5550" timeStopped="0"/>
        <vehicle id="vehWithCustDepartEnergy" energyConsumed="0.3520" actualBatteryCapacity="9746.0357" maximumBatteryCapacity="35000.0000" chargingStationId="NULL" energyCharged="0.0000" energyChargedInTransit="0.0000" energyChargedStopped="0.0000" speed="7.9739" acceleration="-0.8440" posx="1444.6456" posy="331.5346" lane="16to38_0" posOnLane="121.9684" timeStopped="0"/>
    </timeStep>
    <timeStep time="37.00">
        <vehicle id="vehWithBusStop" energyConsumed="13.2968" actualBatteryCapacity="17255.7859" maximumBatteryCapacity="35000.0000" chargingStationId="NULL" energyCharged="0.0000" energyChargedInTransit="0.0000" energyChargedStopped="0.0000" speed="14.3168" acceleration="0.6237" posx="1311.5279" posy="326.7936" lane="16to13_0" posOnLane="44.8718" timeStopped="0"/>
        <vehicle id="vehWithCustDepartEnergy" energyConsumed="9.7484" actualBatteryCapacity="9736.2873" maximumBatteryCapacity="35000.0000" chargingStationId="NULL" energyCharged="0.0000" energyChargedInTransit="0.0000" energyChargedStopped="0.0000" speed="8.9477" acceleration="0.9739" posx="1452.7752" posy="335.2727" lane="16to38_0" posOnLane="130.9162" timeStopped="0"/>
    </timeStep>
    <timeStep time="38.00">
        <vehicle id="vehWithBusStop" energyConsumed="-1.2838" actualBatteryCapacity="17257.0697" maximumBatteryCapacity="35000.0000" chargingStationId="NULL" energyCharged="0.0000" energyChargedInTransit="0.0000" energyChargedStopped="0.0000" speed="13.1139" acceleration="-1.2029" posx="1306.6057" posy="338.9494" lane="16to13_0" posOnLane="57.9857" timeStopped="0"/>
        <vehicle id="vehWithCustDepartEnergy" energyConsumed="4.0018" actualBatteryCapacity="9732.2855" maximumBatteryCapacity="35000.0000" chargingStationId="NULL" energyCharged="0.0000" energyChargedInTransit="0.0000" energyChargedStopped="0.0000" speed="8.7724" acceleration="-0.1753" posx="1460.7454" posy="338.9375" lane="16to38_0" posOnLane="139.6885" timeStopped="0"/>
    </timeStep>
    <timeStep time="39.00">
        <vehicle id="vehWithBusStop" energyConsumed="14.6639" actualBatteryCapacity="17242.4058" maximumBatteryCapacity="35000.0000" chargingStationId="NULL" energyCharged="0.0000" energyChargedInTransit="0.0000" energyChargedStopped="0.0000" speed="13.9631" acceleration="0.8492" posx="1301.6468" posy="351.9084" lane=":13_3_0" posOnLane="9.2588" timeStopped="0"/>
        <vehicle id="vehWithCustDepartEnergy" energyConsumed="6.5924" actualBatteryCapacity="9725.6931" maximumBatteryCapacity="35000.0000" chargingStationId="NULL" energyCharged="0.0000" energyChargedInTransit="0.0000" energyChargedStopped="0.0000" speed="9.0686" acceleration="0.2962" posx="1468.9848" posy="342.7261" lane="16to38_0" posOnLane="148.7571" timeStopped="0"/>
    </timeStep>
    <timeStep time="40.00">
        <vehicle id="vehWithBusStop" energyConsumed="5.4880" actualBatteryCapacity="17236.9178" maximumBatteryCapacity="35000.0000" chargingStationId="NULL" energyCharged="0.0000" energyChargedInTransit="0.0000" energyChargedStopped="0.0000" speed="13.6666" acceleration="-0.2966" posx="1297.2420" posy="364.8353" lane="13to1_0" posOnLane="12.5554" timeStopped="0"/>
        <vehicle id="vehWithCustDepartEnergy" energyConsumed="4.1617" actualBatteryCapacity="9721.5314" maximumBatteryCapacity="35000.0000" chargingStationId="NULL" energyCharged="0.0000" energyChargedInTransit="0.0000" energyChargedStopped="0.0000" speed="8.9111" acceleration="-0.1575" posx="1477.0810" posy="346.4489" lane="16to38_0" posOnLane="157.6682" timeStopped="0"/>
    </timeStep>
    <timeStep time="41.00">
        <vehicle id="vehWithBusStop" energyConsumed="12.1982" actualBatteryCapacity="17224.7196" maximumBatteryCapacity="35000.0000" chargingStationId="NULL" energyCharged="0.0000" energyChargedInTransit="0.0000" energyChargedStopped="0.0000" speed="14.1690" acceleration="0.5024" posx="1292.6738" posy="378.2481" lane="13to1_0" posOnLane="26.7244" timeStopped="0"/>
        <vehicle id="vehWithCustDepartEnergy" energyConsumed="6.1822" actualBatteryCapacity="9715.3493" maximumBatteryCapacity="35000.0000" chargingStationId="NULL" energyCharged="0.0000" energyChargedInTransit="0.0000" energyChargedStopped="0.0000" speed="9.1195" acceleration="0.2084" posx="1485.3666" posy="350.2587" lane="16to38_0" posOnLane="166.7877" timeStopped="0"/>
    </timeStep>
    <timeStep time="42.00">