<?xml version="1.0" encoding="UTF-8"?>

<!-- generated on Tue Apr  5 13:59:52 2016 by SUMO Version dev-SVN-r20343
<?xml version="1.0" encoding="UTF-8"?>

<configuration xmlns:xsi="http://www.w3.org/2001/XMLSchema-instance" xsi:noNamespaceSchemaLocation="http://sumo.dlr.de/xsd/sumoConfiguration.xsd">

    <input>
        <net-file value="three_split.net.xml"/>
        <route-files value="input_routes.rou.xml"/>
        <additional-files value="input_additional.add.xml"/>
    </input>

    <time>
        <end value="5401"/>
    </time>

    <processing>
        <euler value="true"/>
    </processing>

    <report>
        <xml-validation value="never"/>
        <duration-log.disable value="true"/>
        <no-step-log value="true"/>
    </report>

</configuration>
-->

<calibratorstats>
   <interval begin="0.00" end="3600.00" id="swallow_jam" nVehContrib="531" removed="0" inserted="0" cleared="900" flow="531.00" aspiredFlow="-1.00" speed="1.25" aspiredSpeed="27.80"/>
   <interval begin="3600.00" end="5400.00" id="swallow_jam" nVehContrib="167" removed="0" inserted="0" cleared="402" flow="334.00" aspiredFlow="-1.00" speed="1.05" aspiredSpeed="27.80"/>
</calibratorstats>
