<?xml version="1.0" encoding="UTF-8"?>

<!-- generated on Tue 22 Mar 2016 02:19:53 PM CET by Netedit Version dev-SVN-r20278
<?xml version="1.0" encoding="UTF-8"?>

<configuration xmlns:xsi="http://www.w3.org/2001/XMLSchema-instance" xsi:noNamespaceSchemaLocation="http://sumo.dlr.de/xsd/netedit.exeConfiguration.xsd">

    <input>
        <sumo-net-file value="opposite_direction_driving/net2.net.xml"/>
    </input>

    <output>
        <output-file value="opposite_direction_driving/net2.net.xml"/>
    </output>

    <processing>
        <no-internal-links value="true"/>
        <no-turnarounds value="true"/>
        <offset.disable-normalization value="true"/>
        <lefthand value="false"/>
        <junctions.corner-detail value="0"/>
    </processing>

</configuration>
-->

<net version="0.25" xmlns:xsi="http://www.w3.org/2001/XMLSchema-instance" xsi:noNamespaceSchemaLocation="http://sumo.dlr.de/xsd/net_file.xsd">

    <location netOffset="0.00,0.00" convBoundary="0.00,0.00,400.00,100.00" origBoundary="-10000000000.00,-10000000000.00,10000000000.00,10000000000.00" projParameter="!"/>

    <edge id="-VODUGES_beg" from="C" to="W" priority="1">
        <lane id="-VODUGES_beg_0" index="0" speed="13.89" length="50.00" shape="50.00,1.65 0.00,1.65">
            <neigh lane="VODUGES_beg_0"/>
        </lane>
    </edge>
    <edge id="-VODUGES_end" from="E" to="C" priority="1">
        <lane id="-VODUGES_end_0" index="0" speed="13.89" length="150.00" shape="195.25,1.65 50.00,1.65">
            <neigh lane="VODUGES_end_0"/>
        </lane>
    </edge>
    <edge id="VODUGES_beg" from="W" to="C" priority="1">
        <lane id="VODUGES_beg_0" index="0" speed="13.89" length="50.00" shape="0.00,-1.65 50.00,-1.65">
            <neigh lane="-VODUGES_beg_0"/>
        </lane>
    </edge>
    <edge id="VODUGES_end" from="C" to="E" priority="1">
        <lane id="VODUGES_end_0" index="0" speed="13.89" length="150.00" shape="50.00,-1.65 195.25,-1.65">
            <neigh lane="-VODUGES_end_0"/>
        </lane>
    </edge>
    <edge id="end2" from="E" to="E2" priority="1">
        <lane id="end2_0" index="0" speed="13.89" length="200.00" shape="201.45,-1.65 400.00,-1.65"/>
    </edge>
    <edge id="gneE1" from="N2" to="E" priority="1">
        <lane id="gneE1_0" index="0" speed="13.89" length="100.00" shape="198.35,100.00 198.35,4.75"/>
    </edge>

    <junction id="C" type="priority" x="50.00" y="0.00" incLanes="-VODUGES_end_0 VODUGES_beg_0" intLanes="" shape="50.00,3.25 50.00,-3.25 50.00,3.25">
        <request index="0" response="00" foes="00"/>
        <request index="1" response="00" foes="00"/>
    </junction>
    <junction id="E" type="priority" x="200.00" y="0.00" incLanes="gneE1_0 VODUGES_end_0" intLanes="" shape="196.75,4.75 199.95,4.75 201.45,-0.05 201.45,-3.25 195.25,-3.25 195.25,3.25">
        <request index="0" response="000" foes="000"/>
        <request index="1" response="100" foes="100"/>
        <request index="2" response="000" foes="010"/>
    </junction>
    <junction id="E2" type="unregulated" x="400.00" y="0.00" incLanes="end2_0" intLanes="" shape="400.00,-3.25 400.00,-0.05"/>
    <junction id="N2" type="unregulated" x="200.00" y="100.00" incLanes="" intLanes="" shape="199.95,100.00 196.75,100.00"/>
    <junction id="W" type="dead_end" x="0.00" y="0.00" incLanes="-VODUGES_beg_0" intLanes="" shape="0.00,-0.05 0.00,-3.25 0.00,3.25 0.00,0.05"/>

    <connection from="-VODUGES_end" to="-VODUGES_beg" fromLane="0" toLane="0" dir="s" state="M"/>
    <connection from="VODUGES_beg" to="VODUGES_end" fromLane="0" toLane="0" dir="s" state="M"/>
    <connection from="VODUGES_end" to="end2" fromLane="0" toLane="0" dir="s" state="M"/>
    <connection from="gneE1" to="-VODUGES_end" fromLane="0" toLane="0" dir="r" state="M"/>
    <connection from="gneE1" to="end2" fromLane="0" toLane="0" dir="l" state="m"/>

</net>
